# Imported from MATPOWER Case Format
mpc.version
2
mpc.version.end

# System MVA base
mpc.baseMVA
100
mpc.baseMVA.end

# Bus data: bus_i	type	Pd	Qd	Gs	Bs	area	Vm	Va	baseKV	zone	Vmax	Vmin
mpc.bus
        89         1       0.000000       0.000000       0.199111       4.530599         0       0.998636      -2.727750     380.000000         2       1.100000       0.900000
       228         1     -23.430000      57.400000       0.000000       0.000000         0       1.052189      -6.261857     150.000000         2       1.100000       0.900000
       271         1      96.700000      26.800000       0.000000       0.000000         0       1.039303      -7.776001     150.000000         2       1.100000       0.900000
       317         1      -0.000000      -0.000000       0.045946      -1.822030         0       1.052125       7.798122     380.000000         2       1.100000       0.900000
       659         1      -0.000000      -0.000000       0.174507      73.977052         0       1.051131       7.758352     380.000000         2       1.100000       0.900000
       792         1     295.300000      41.900000       0.000000       0.000000         0       1.034186      -0.892077     150.000000         2       1.100000       0.900000
       913         3       0.000000       0.000000       0.000000       0.000000         0       1.030951       0.000000     380.000000         2       1.100000       0.900000
       955         1     244.200000     152.700000       0.000000       0.000000         0       1.002465      -9.133500     150.000000         2       1.100000       0.900000
      1037         1      -0.000000       0.000000       0.000000       0.550000         0       1.052997       6.608460     380.000000         2       1.100000       0.900000
      1163         1      -0.000000      -0.000000       0.000000      16.040000         0       1.009762       0.452512     380.000000         2       1.100000       0.900000
      1317         1     149.300000      -2.000000       0.000000      20.770000         0       1.038584       4.860360     380.000000         2       1.100000       0.900000
      1367         1       0.000000      -0.000000       0.175687      -1.509401         0       1.023381       1.555353     380.000000         2       1.100000       0.900000
      1445         1     238.400000     210.900000       0.000000       0.000000         0       1.034571       1.565941     220.000000         2       1.100000       0.900000
      1531         1      -0.000000       0.000000       0.000000       0.000000         0       1.018597      -9.561188     150.000000         2       1.100000       0.900000
      1579         1      -0.000000       0.000000       0.000000      16.560000         0       1.006543      -3.372234     380.000000         2       1.100000       0.900000
      1611         1     274.100000     166.500000       0.000000       0.560000         0       1.046304      -7.256268     150.000000         2       1.100000       0.900000
      1616         1       0.000000       0.000000       0.000000      14.450000         0       1.005410      -2.075121     380.000000         2       1.100000       0.900000
      1676         1      -0.000000       0.000000       0.171586      -1.463200         0       1.009368       0.393065     380.000000         2       1.100000       0.900000
      1815         1      63.660000       9.700000       0.000000       0.000000         0       1.057771       1.930378     220.000000         2       1.100000       0.900000
      1968         1     118.400000     137.000000       0.000000       0.000000         0       1.023080      -9.076484     150.000000         2       1.100000       0.900000
      2107         2       0.000000       0.000000       0.000000       0.000000         0       1.038880       1.911591     380.000000         2       1.100000       0.900000
      2154         1    -357.450000      33.050000       0.290000      -5.600000         0       1.038292       4.119618     380.000000         2       1.100000       0.900000
      2168         1       8.600000      -1.480000       0.000000       0.000000         0       1.016376     -10.986644     150.000000         2       1.100000       0.900000
      2267         2       0.000000       0.000000       0.000000       0.000000         0       1.038741      13.145635     380.000000         2       1.100000       0.900000
      2268         1       0.000000      -0.000000       0.183167      22.675025         0       0.992930      -3.227608     380.000000         2       1.100000       0.900000
      2299         1     402.100000     110.200000       0.000000       0.000000         0       1.041450      -9.187766     150.000000         2       1.100000       0.900000
      2441         1       0.000000      -0.000000       0.242534       1.143584         0       0.991005      -2.851027     380.000000         2       1.100000       0.900000
      2449         1     301.900000    -103.200000       0.000000       0.000000         0       1.086934      -3.975023     150.000000         2       1.100000       0.900000
      2520         1      -0.000000      -0.000000       0.057433       3.807970         0       0.999733      -2.864195     380.000000         2       1.100000       0.900000
      2870         1      -0.000000       0.000000       0.000000       0.620000         0       1.052997       6.608458     380.000000         2       1.100000       0.900000
      2908         1     203.800000      61.000000       0.000000       0.600000         0       1.022416      -8.626457     150.000000         2       1.100000       0.900000
      3097         1     361.910000       3.660000       0.000000       9.390000         0       1.048722       6.053199     380.000000         2       1.100000       0.900000
      3242         1     296.100000      82.300000       0.000000       0.000000         0       1.054504      -7.412198     150.000000         2       1.100000       0.900000
      3279         1       0.000000       0.000000       0.000000       0.000000         0       1.034258      -0.851682     150.000000         2       1.100000       0.900000
      3493         1     226.300000      61.100000       0.000000       0.000000         0       1.040629      -8.480830     150.000000         2       1.100000       0.900000
      3506         1       0.000000       0.000000       0.000000       0.600000         0       1.002708      -9.099771     150.000000         2       1.100000       0.900000
      3659         2       0.000000       0.000000       0.000000       0.000000         0       1.052170       3.047982     380.000000         2       1.100000       0.900000
      4014         1       0.000000       0.000000       0.000000       0.000000         0       1.033972     -11.211406     150.000000         2       1.100000       0.900000
      4423         1      -0.000000      -0.000000       0.000000       0.330000         0       1.041510      -9.184566     150.000000         2       1.100000       0.900000
      4427         1     296.800000      77.700000       0.000000       0.000000         0       1.036884      -8.989109     150.000000         2       1.100000       0.900000
      4495         1     336.300000     104.400000       0.000000       0.000000         0       1.038497      -8.943812     150.000000         2       1.100000       0.900000
      4586         2       0.000000       0.000000       0.000000       0.000000         0       1.047701      -8.936803     150.000000         2       1.100000       0.900000
      4665         1     390.500000      62.500000       0.000000       0.000000         0       1.038909      -9.572843     150.000000         2       1.100000       0.900000
      4929         1      37.000000       8.700000       0.070441      50.913893         0       1.052995       6.608472     380.000000         2       1.100000       0.900000
      5097         2       0.000000       0.000000       0.000000       0.000000         0       1.054440      -7.409117     150.000000         2       1.100000       0.900000
      5155         1     411.300000     168.000000       0.000000       0.000000         0       1.030998      -8.935752     150.000000         2       1.100000       0.900000
      5210         1     347.610000      74.370000       0.000000       0.000000         0       1.032891       1.843201     220.000000         2       1.100000       0.900000
      5416         1       0.000000       0.000000       0.000000      25.130000         0       1.038395      13.370128     380.000000         2       1.100000       0.900000
      5509         1       0.000000       0.000000       0.314057      17.296509         0       0.998444      -4.249456     380.000000         2       1.100000       0.900000
      5587         1      -0.000000      -0.000000       0.000000       0.330000         0       1.040763      -8.452887     150.000000         2       1.100000       0.900000
      5762         1       0.000000       0.000000       0.000000       2.230000         0       1.042315       2.398228     380.000000         2       1.100000       0.900000
      5776         1     222.700000      80.500000       0.000000       0.000000         0       1.074341      -5.369730     150.000000         2       1.100000       0.900000
      5848         1       0.000000      -0.000000       0.290000      -0.420000         0       1.009361      -3.019347     380.000000         2       1.100000       0.900000
      5996         1      -0.000000      -0.000000       0.164188       4.023827         0       1.042267       2.398458     380.000000         2       1.100000       0.900000
      6069         1    -456.660000    -131.970000       0.285753      35.371068         0       0.977261      -4.164826     380.000000         2       1.100000       0.900000
      6233         2       0.000000       0.000000       0.000000       0.000000         0       1.052521       7.855236     380.000000         2       1.100000       0.900000
      6293         1      -0.000000       0.000000       0.000000      33.660000         0       0.994291      -2.462873     380.000000         2       1.100000       0.900000
      6542         1     355.980000    -147.980000       0.000000       0.000000         0       1.070142      -0.547689     220.000000         2       1.100000       0.900000
      6704         1      -0.000000      -0.000000       0.211099       0.672832         0       1.003492      -1.524637     380.000000         2       1.100000       0.900000
      6798         2       0.000000       0.000000       0.000000       0.000000         0       1.053791       8.136528     380.000000         2       1.100000       0.900000
      6826         1     326.900000     -82.300000       0.000000       0.000000         0       1.076555      -5.785181     150.000000         2       1.100000       0.900000
      6833         1       0.000000       0.000000       0.246363       4.841277         0       0.968382      -4.881372     380.000000         2       1.100000       0.900000
      7051         1       0.000000       0.000000       0.000000      21.190000         0       1.014089       1.516121     380.000000         2       1.100000       0.900000
      7180         1      -0.000000       0.000000       0.234234       4.220723         0       0.970984      -4.969800     380.000000         2       1.100000       0.900000
      7279         2       0.000000       0.000000       0.000000       0.000000         0       1.033972     -11.211406     150.000000         2       1.100000       0.900000
      7526         1    -179.730000     -63.080000       0.000000       0.000000         0       1.015360      -2.233440     380.000000         2       1.100000       0.900000
      7563         1     531.700000     -12.800000       0.000000       0.000000         0       1.040779     -11.086919     150.000000         2       1.100000       0.900000
      7637         1       0.000000       0.000000       0.290000       6.180000         0       1.035715      19.540360     380.000000         2       1.100000       0.900000
      7762         1      -0.000000       0.000000       0.304243      48.453399         0       1.010704      -1.708130     380.000000         2       1.100000       0.900000
      7829         1    -114.360000      30.040000       0.000000       0.000000         0       1.061046      -2.763095     220.000000         2       1.100000       0.900000
      7960         2       0.000000       0.000000       0.000000       0.000000         0       1.052291       7.890294     380.000000         2       1.100000       0.900000
      8103         1      39.340000     -10.700000       0.000000       0.000000         0       1.004551       0.142145     150.000000         2       1.100000       0.900000
      8179         1      -0.000000       0.000000       0.194464      19.146800         0       1.000980      -3.338287     380.000000         2       1.100000       0.900000
      8181         1       0.000000      -0.000000       0.210824       6.620599         0       1.002202      -2.956885     380.000000         2       1.100000       0.900000
      8229         1       0.000000       0.000000       0.000000       0.000000         0       1.074341      -5.369730     150.000000         2       1.100000       0.900000
      8329         1       0.000000       0.000000       0.149712       2.049870         0       1.044426       7.173090     380.000000         2       1.100000       0.900000
      8335         1     637.920000     139.570000       0.000000       0.000000         0       1.018566      -9.584605     150.000000         2       1.100000       0.900000
      8420         1      -0.000000       0.000000       0.000000       0.000000         0       1.046629      -7.203087     150.000000         2       1.100000       0.900000
      8574         1      -0.000000       0.000000       0.447839      20.994738         0       1.003438      -1.909419     380.000000         2       1.100000       0.900000
      8581         1   -1299.130000    -140.850000       0.000000       0.000000         0       1.039591      30.739738     380.000000         2       1.100000       0.900000
      8605         2       0.000000       0.000000       0.000000       0.000000         0       1.023822       1.618632     380.000000         2       1.100000       0.900000
      8847         1      -0.000000       0.000000       0.180760      -0.881251         0       1.012215       1.210841     380.000000         2       1.100000       0.900000
      8921         1       0.000000       0.000000       0.000000      16.370000         0       1.006660      -1.113339     380.000000         2       1.100000       0.900000
      8964         1     925.910000     147.970000       0.000000       0.000000         0       1.016233     -11.017670     150.000000         2       1.100000       0.900000
      9024         1       0.000000       0.000000       0.141019      25.246000         0       1.057806       3.597804     380.000000         2       1.100000       0.900000
      9025         1       0.000000      -0.000000       0.205903       3.076800         0       1.004762      -2.614515     380.000000         2       1.100000       0.900000
      9064         1       0.000000      -0.000000       0.000000      15.260000         0       1.004902      -2.063293     380.000000         2       1.100000       0.900000
      9192         1      17.920000      23.300000       0.000000       0.000000         0       1.024174      -8.845464     150.000000         2       1.100000       0.900000
      9239         2       0.000000       0.000000       0.000000       0.000000         0       1.052319       7.894637     380.000000         2       1.100000       0.900000
mpc.bus.end

# generator data: bus	Pg	Qg	Qmax	Qmin	Vg	mBase	status	Pmax	Pmin	Pc1	Pc2	Qc1min	Qc1max	Qc2min	Qc2max	ramp_agc	ramp_10	ramp_30	ramp_q	apf
mpc.gen
       913    1249.102310     696.323675     772.110000    -269.940000       1.030951     100.000000       1.000000    1700.000000     566.670000       0.000000       0.000000       0.000000       0.000000       0.000000       0.000000       0.000000       0.000000       0.000000       0.000000       0.000000
      2107    1269.400000     588.337672     661.900000    -257.620000       1.038880     100.000000       1.000000    1500.000000     500.000000       0.000000       0.000000       0.000000       0.000000       0.000000       0.000000       0.000000       0.000000       0.000000       0.000000       0.000000
      2267     362.000000     200.978114     228.160000     -78.830000       1.038741     100.000000       1.000000     500.000000     166.670000       0.000000       0.000000       0.000000       0.000000       0.000000       0.000000       0.000000       0.000000       0.000000       0.000000       0.000000
      3659    1097.400000     689.661500     943.640000    -282.010000       1.052170     100.000000       1.000000    2000.000000     666.670000       0.000000       0.000000       0.000000       0.000000       0.000000       0.000000       0.000000       0.000000       0.000000       0.000000       0.000000
      4586    -545.700000      42.681449      92.960000     -29.810000       1.047701     100.000000       1.000000     100.000000    -727.600000       0.000000       0.000000       0.000000       0.000000       0.000000       0.000000       0.000000       0.000000       0.000000       0.000000       0.000000
      5097      21.100000       3.141887       8.910000      -4.110000       1.054440     100.000000       1.000000      21.230000       7.080000       0.000000       0.000000       0.000000       0.000000       0.000000       0.000000       0.000000       0.000000       0.000000       0.000000       0.000000
      6233     879.600000     369.492609     545.680000    -189.970000       1.052521     100.000000       1.000000    1200.000000     400.000000       0.000000       0.000000       0.000000       0.000000       0.000000       0.000000       0.000000       0.000000       0.000000       0.000000       0.000000
      6798     949.700000     273.699009     429.610000    -183.480000       1.053791     100.000000       1.000000    1000.000000     333.330000       0.000000       0.000000       0.000000       0.000000       0.000000       0.000000       0.000000       0.000000       0.000000       0.000000       0.000000
      7279    -681.700000       5.379494      14.780000      -6.640000       1.033972     100.000000       1.000000     100.000000    -908.930000       0.000000       0.000000       0.000000       0.000000       0.000000       0.000000       0.000000       0.000000       0.000000       0.000000       0.000000
      7960     419.000000     154.284240     274.200000     -93.220000       1.052291     100.000000       1.000000     600.000000     200.000000       0.000000       0.000000       0.000000       0.000000       0.000000       0.000000       0.000000       0.000000       0.000000       0.000000       0.000000
      8605     427.000000     193.780666     273.940000     -93.650000       1.023822     100.000000       1.000000     600.000000     200.000000       0.000000       0.000000       0.000000       0.000000       0.000000       0.000000       0.000000       0.000000       0.000000       0.000000       0.000000
      9239     419.000000     154.105299     274.200000     -93.220000       1.052319     100.000000       1.000000     600.000000     200.000000       0.000000       0.000000       0.000000       0.000000       0.000000       0.000000       0.000000       0.000000       0.000000       0.000000       0.000000
mpc.gen.end

# branch data: fbus	tbus	r	x	b	rateA	rateB	rateC	ratio	angle	status	angmin	angmax PF* QF* PT* QT*
mpc.branch
      3097       659       0.000730       0.009050       0.000000    1205.000000       0.000000       0.000000       0.000000       0.000000         1    -360.000000     360.000000    -361.910000       6.667287     362.779662       4.114145
      9024      4929       0.001920       0.022960       0.000000     909.000000       0.000000       0.000000       0.000000       0.000000         1    -360.000000     360.000000    -250.634468      49.820795     251.754940     -36.421822
      1815      6542       0.014310       0.058990       0.000000       0.000000       0.000000       0.000000       0.000000       0.000000         1    -360.000000     360.000000      73.686027     -38.262228     -72.804361      41.896712
      6542      1445       0.026070       0.071680       0.000000       0.000000       0.000000       0.000000       0.000000       0.000000         1    -360.000000     360.000000     -32.914916      66.127327      34.156997     -62.712199
      6069      6833       0.000540       0.004650       0.000000    1600.000000       0.000000       0.000000       0.000000       0.000000         1    -360.000000     360.000000     272.691339     156.514717    -272.132377    -151.701433
      6069      2268       0.001260       0.011240       0.000000    1633.000000       0.000000       0.000000       0.000000       0.000000         1    -360.000000     360.000000    -154.410845    -117.772521     154.908401     122.211034
      6069      7180       0.000480       0.005270       0.000000    1567.000000       0.000000       0.000000       0.000000       0.000000         1    -360.000000     360.000000     261.555598      94.337913    -261.167035     -90.071813
      6069      6293       0.000820       0.009380       0.000000    1600.000000       0.000000       0.000000       0.000000       0.000000         1    -360.000000     360.000000    -320.331281    -144.857927     321.392482     156.997023
      1968      9192       0.000280       0.003502       0.000000       0.000000       0.000000       0.000000       0.000000       0.000000         1    -360.000000     360.000000    -122.395262     -21.949774     122.436626      22.467112
      1968      3493       0.691467       4.414711       0.000000       0.000000       0.000000       0.000000       0.000000       0.000000         1    -360.000000     360.000000      -0.306681      -0.357369       0.308146       0.366722
      1968       955       0.020040       0.091600       0.000000       0.000000       0.000000       0.000000       0.000000       0.000000         1    -360.000000     360.000000       5.870428      21.740098      -5.773340     -21.296321
      1968       228       0.841911       4.768444       0.000000       0.000000       0.000000       0.000000       0.000000       0.000000         1    -360.000000     360.000000      -1.177296      -0.389444       1.189664       0.459497
      1968      6826       0.026000       0.089480       0.000000       0.000000       0.000000       0.000000       0.000000       0.000000         1    -360.000000     360.000000     -81.005195     -35.574058      82.949524      42.265539
      1968      8964       0.002631       0.011889       0.000000     319.000000       0.000000       0.000000       0.000000       0.000000         1    -360.000000     360.000000     295.881497      -1.543625    -293.680855      11.487920
      1968      5776       0.723200       1.944000       0.000000       0.000000       0.000000       0.000000       0.000000       0.000000         1    -360.000000     360.000000      -4.053865      -1.071360       4.175344       1.397900
      9192       955       0.156169       0.546756       0.000000       0.000000       0.000000       0.000000       0.000000       0.000000         1    -360.000000     360.000000       1.947301       3.512612      -1.923286      -3.428532
      9192      6826       0.168809       0.580622       0.000000       0.000000       0.000000       0.000000       0.000000       0.000000         1    -360.000000     360.000000     -11.752105      -5.552009      12.023982       6.487135
      9192      8964       0.019222       0.068209       0.000000       0.000000       0.000000       0.000000       0.000000       0.000000         1    -360.000000     360.000000      56.980241      -3.037396     -56.383574       5.154659
      8574      1616       0.000390       0.003860       0.000000    1435.000000       0.000000       0.000000       0.000000       0.000000         1    -360.000000     360.000000      69.706533     -58.208023     -69.674589      58.524186
      8574      1163       0.000960       0.011380       0.000000    1468.000000       0.000000       0.000000       0.000000       0.000000         1    -360.000000     360.000000    -368.378933     -17.120498     369.675565      32.490991
      8574      9064       0.000370       0.003250       0.000000    1435.000000       0.000000       0.000000       0.000000       0.000000         1    -360.000000     360.000000      77.189350     -53.888938     -77.156784      54.174990
      8574      8921       0.000290       0.003390       0.000000    1600.000000       0.000000       0.000000       0.000000       0.000000         1    -360.000000     360.000000    -418.841214     -56.664177     419.355723      62.678606
      3493      2299       0.009458       0.158871       0.000000       0.000000       0.000000       0.000000       0.000000       0.000000         1    -360.000000     360.000000       8.358085      -0.982837      -8.351899       1.086740
      2299      4423       0.000000       0.000222       0.000000       0.000000       0.000000       0.000000       0.000000       0.000000         1    -360.000000     360.000000     -27.289603     -28.208573      27.289603      28.211726
      6826      2299       0.312951       7.130667       0.000000       0.000000       0.000000       0.000000       0.000000       0.000000         1    -360.000000     360.000000       0.955838       0.515775      -0.952652      -0.443196
      7563      2299       0.247649       1.075911       0.000000       0.000000       0.000000       0.000000       0.000000       0.000000         1    -360.000000     360.000000      -3.172808       0.720738       3.197011      -0.615591
      4427      2299       0.060560       0.186120       0.000000       0.000000       0.000000       0.000000       0.000000       0.000000         1    -360.000000     360.000000       1.071753      -2.888656      -1.066405       2.905089
      8335      2299       2.142489       4.347733       0.000000       0.000000       0.000000       0.000000       0.000000       0.000000         1    -360.000000     360.000000      -0.348300      -0.363878       0.353539       0.374510
      5155      2299       0.071320       1.068889       0.000000       0.000000       0.000000       0.000000       0.000000       0.000000         1    -360.000000     360.000000       0.372979      -1.032010      -0.372171       1.044119
       271      2299       0.022680       0.086520       0.000000       0.000000       0.000000       0.000000       0.000000       0.000000         1    -360.000000     360.000000      28.300904      -9.617242     -28.113309      10.332881
      2449      2299       2.007778       4.494222       0.000000       0.000000       0.000000       0.000000       0.000000       0.000000         1    -360.000000     360.000000       2.356139       0.151633      -2.261405       0.060420
      4665      2299       0.006178       0.028938       0.000000       0.000000       0.000000       0.000000       0.000000       0.000000         1    -360.000000     360.000000     -25.878419      -3.512034      25.917457       3.694892
      4495      2299       0.027711       0.260951       0.000000       0.000000       0.000000       0.000000       0.000000       0.000000         1    -360.000000     360.000000       1.622019      -1.343525      -1.620879       1.354259
      3493      5587       0.000000       0.000222       0.000000     319.000000       0.000000       0.000000       0.000000       0.000000         1    -360.000000     360.000000    -237.923639     -62.582898     237.923639      62.706975
      4586      3493       0.006920       0.337378       0.000000       0.000000       0.000000       0.000000       0.000000       0.000000         1    -360.000000     360.000000      -2.525437       2.258054       2.526161      -2.222780
       228      3493       0.025991       0.100480       0.000000       0.000000       0.000000       0.000000       0.000000       0.000000         1    -360.000000     360.000000      42.678810       1.881727     -42.250356      -0.225345
      6826      3493       0.083711       0.864800       0.000000       0.000000       0.000000       0.000000       0.000000       0.000000         1    -360.000000     360.000000       6.478598       3.988473      -6.436792      -3.556583
      7563      3493       0.447378       1.862089       0.000000       0.000000       0.000000       0.000000       0.000000       0.000000         1    -360.000000     360.000000      -2.484782       0.665477       2.512111      -0.551728
      4427      3493       0.062169       0.153191       0.000000       0.000000       0.000000       0.000000       0.000000       0.000000         1    -360.000000     360.000000      -6.238468       0.024416       6.260973       0.031039
      8335      3493       2.492533       4.725778       0.000000       0.000000       0.000000       0.000000       0.000000       0.000000         1    -360.000000     360.000000      -0.532535      -0.190499       0.540220       0.205070
      5155      3493       0.020271       0.082440       0.000000       0.000000       0.000000       0.000000       0.000000       0.000000         1    -360.000000     360.000000     -12.527226      -8.923675      12.572340       9.107147
       271      3493       0.114160       1.777556       0.000000       0.000000       0.000000       0.000000       0.000000       0.000000         1    -360.000000     360.000000       0.740714      -0.120512      -0.740119       0.129780