# Imported from MATPOWER Case Format
mpc.version
2
mpc.version.end

# System MVA base
mpc.baseMVA
100
mpc.baseMVA.end

# Bus data: bus_i	type	Pd	Qd	Gs	Bs	area	Vm	Va	baseKV	zone	Vmax	Vmin
mpc.bus
         1         1       0.000000       0.000000       0.000000       0.000000         1       1.080407      -0.640190     220.000000         1       1.110000       0.950000      98.365800       0.193800       0.000000       0.000000
         2         1       0.000000       0.000000       0.000000       0.000000         1       1.081113       1.264694     220.000000         1       1.110000       0.950000      97.998800       0.155600       0.000000       0.000000
         3         1       0.000000       0.000000       0.000000       0.000000         1       1.049055     -27.517063     220.000000         1       1.110000       0.950000     113.593100       0.824300       0.000000       0.000000
         4         1       0.000000       0.000000       0.000000       0.000000         1       1.059180      -6.297294     220.000000         1       1.110000       0.950000     101.346200       0.747000       0.000000       0.000000
         5         1       0.000000       0.000000       0.000000       0.000000         1       1.059230      -6.299818     220.000000         1       1.110000       0.950000     101.348100       0.745700       0.000000       0.000000
         6         1       0.000000       0.000000       0.000000       0.000000         1       1.036078     -18.437685     220.000000         1       1.110000       0.950000     106.582800       1.222300       0.000000       0.000000
         7         1       0.000000       0.000000       0.000000       0.000000         1       1.036255     -18.429342     220.000000         1       1.110000       0.950000     106.574300       1.218700       0.000000       0.000000
         8         1       0.000000       0.000000       0.000000       0.000000         1       1.010009     -13.963552     400.000000         1       1.050000       0.950000     105.255300       0.687300       0.000000       0.000000
         9         1       0.000000       0.000000       0.000000       0.000000         1       1.010038     -13.958925     400.000000         1       1.050000       0.950000     105.252700       0.685700       0.000000       0.000000
        10         1       0.000000       0.000000       0.000000       0.000000         1       1.014221     -18.415102     220.000000         1       1.110000       0.950000     107.737800       1.816500       0.000000       0.000000
        11         1       0.000000       0.000000       0.000000       0.000000         1       1.014111     -18.399852     220.000000         1       1.110000       0.950000     107.736900       1.819100       0.000000       0.000000
        12         1       0.000000       0.000000       0.000000       0.000000         1       1.014159     -18.390093     220.000000         1       1.110000       0.950000     107.734700       1.818400       0.000000       0.000000
        13         1       0.000000       0.000000       0.000000       0.000000         1       1.007804     -12.119228     400.000000         1       1.050000       0.950000     104.407500       1.038900       0.000000       0.000000
        14         1       0.000000       0.000000       0.000000       0.000000         1       1.007860     -12.108754     400.000000         1       1.050000       0.950000     104.401800       1.036500       0.000000       0.000000
        15         1       0.000000       0.000000       0.000000       0.000000         1       1.008159     -17.183535     400.000000         1       1.050000       0.950000     106.119600       0.052600       0.000000       0.000000
        16         1       0.000000       0.000000       0.000000       0.000000         1       1.008159     -17.183535     400.000000         1       1.050000       0.950000     106.119600       0.052600       0.000000       0.000000
        17         2      11.000000      40.000000       0.000000       0.000000         1       1.090880     -22.341088     220.000000         1       1.110000       0.950000     109.531400       0.000700       0.000000       0.000000
        18         2      14.000000      40.000000       0.000000       0.000000         1       1.090910     -22.339390     220.000000         1       1.110000       0.950000     109.530100       0.000000       0.000000       0.020300
        19         1       0.000000       0.000000       0.000000       0.000000         1       1.065379      -5.103037     220.000000         1       1.110000       0.950000     100.672100       0.606600       0.000000       0.000000
        20         1       0.000000       0.000000       0.000000       0.000000         1       1.065419      -5.101861     220.000000         1       1.110000       0.950000     100.673600       0.605800       0.000000       0.000000
        21         1       0.000000       0.000000       0.000000       0.000000         1       1.035269     -19.986561     220.000000         1       1.110000       0.950000     108.343000       1.306200       0.000000       0.000000
        22         1       0.000000       0.000000       0.000000       0.000000         1       1.035195     -19.988482     220.000000         1       1.110000       0.950000     108.344100       1.307500       0.000000       0.000000
        23         1       0.000000       0.000000       0.000000       0.000000         1       1.017164     -18.270445     220.000000         1       1.110000       0.950000     107.660000       1.729100       0.000000       0.000000
        24         1       0.000000       0.000000       0.000000       0.000000         1       1.068956      -2.898953     220.000000         1       1.110000       0.950000      99.807300       0.529600       0.000000       0.000000
        25         1       0.000000       0.000000       0.000000       0.000000         1       1.003160     -14.467577     400.000000         1       1.050000       0.950000     105.480500       0.474500       0.000000       0.000000
        26         2      46.738000      72.054000       0.000000       0.000000         1       1.090910      -0.266216     220.000000         1       1.110000       0.950000      98.184000       0.000000    1871.252400       0.000000
        27         2      85.493000     122.060000       0.000000       0.000000         1       1.090910       1.522701     220.000000         1       1.110000       0.950000      97.880800       0.000000    2497.990300       0.000000
        28         3      60.000000     110.000000       0.000000       0.000000         1       1.032500       0.000000     400.000000         1       1.050000       0.950000      98.816800      -0.163800       0.000000       0.000000
        29         2      60.097000      90.000000       0.000000       0.000000         1       1.032500       0.005998     400.000000         1       1.050000       0.950000      98.812500      -0.162600       0.000000       0.000000
        30         1       0.000000       0.000000       0.000000       0.000000         1       1.022536     -19.250580     220.000000         1       1.110000       0.950000     108.283200       1.509500       0.000000       0.000000
        31         1       0.000000       0.000000       0.000000       0.000000         1       1.031420      -1.485332     400.000000         1       1.050000       0.950000      98.927200      -0.485300       0.000000       0.000000
        32         1       0.000000       0.000000       0.000000       0.000000         1       1.011555     -18.773888     220.000000         1       1.110000       0.950000     107.974400       1.868100       0.000000       0.000000
        33         1       0.000000       0.000000       0.000000       0.000000         1       1.068963      -2.897828     220.000000         1       1.110000       0.950000      99.806900       0.529500       0.000000       0.000000
        34         1       0.000000       0.000000       0.000000       0.000000         1       1.065767      -9.878808     220.000000         1       1.110000       0.950000     103.026600       0.525600       0.000000       0.000000
        35         1       0.000000       0.000000       0.000000       0.000000         1       1.075943     -13.679834     220.000000         2       1.110000       0.950000     104.681700       0.023900       0.000000       0.000000
        36         1       0.000000       0.000000       0.000000       0.000000         1       1.079847     -13.329938     220.000000         2       1.110000       0.950000     104.685100      -0.023300       0.000000       0.000000
        37         1       0.000000       0.000000       0.000000       0.000000         1       1.085670     -11.561496     220.000000         2       1.110000       0.950000     103.561100      -0.073200       0.000000       0.000000
        38         1       0.000000       0.000000       0.000000       0.000000         1       1.085659     -11.565937     220.000000         2       1.110000       0.950000     103.563400      -0.073000       0.000000       0.000000
        39         1       0.000000       0.000000       0.000000       0.000000         1       1.064538     -16.633732     220.000000         2       1.110000       0.950000     106.679200      -0.163100       0.000000       0.000000
        40         1       0.000000       0.000000       0.000000       0.000000         1       1.088360      -9.742487     220.000000         2       1.110000       0.950000     102.802200      -0.215000       0.000000       0.000000
        41         1       0.000000       0.000000       0.000000       0.000000         1       1.088321      -9.740688     220.000000         2       1.110000       0.950000     102.801900      -0.214600       0.000000       0.000000
        42         1       0.000000       0.000000       0.000000       0.000000         1       1.029870     -10.105110     400.000000         2       1.050000       0.950000     102.831000      -0.318200       0.000000       0.000000
        43         2      11.436000       0.000000       0.000000       0.000000         1       1.090910     -10.174841     220.000000         2       1.110000       0.950000     102.889800       0.001900       0.000000       0.000000
        44         2      24.000000       0.000000       0.000000       0.000000         1       1.090960     -10.146567     220.000000         2       1.110000       0.950000     102.880100       0.000000    1267.436000       0.000000
        45         2      20.000000       0.000000       0.000000       0.000000         1       1.032500     -10.948404     400.000000         2       1.050000       0.950000     103.557400       0.000000       0.000000       0.000000
        46         1       0.000000       0.000000       0.000000       0.000000         1       1.032525     -10.950137     400.000000         2       1.050000       0.950000     103.556200      -0.001700       0.000000       0.000000
        47         1       0.000000       0.000000       0.000000       0.000000         1       1.084429     -10.351503     220.000000         2       1.110000       0.950000     103.221600      -0.133200       0.000000       0.000000
        48         1       0.000000       0.000000       0.000000       0.000000         1       1.020802     -16.013959     400.000000         2       1.050000       0.950000     104.675200      -0.347700       0.000000       0.000000
        49         1       0.000000       0.000000       0.000000       0.000000         1       1.020769     -16.023193     400.000000         2       1.050000       0.950000     104.679700      -0.346900       0.000000       0.000000
        50         1       0.000000       0.000000       0.000000       0.000000         1       1.034492     -12.139777     400.000000         2       1.050000       0.950000     103.964000      -0.438000    2649.867500       0.000000
        51         1       0.000000       0.000000       0.000000       0.000000         1       1.071960     -15.447193     220.000000         2       1.110000       0.950000     106.023300      -0.106300       0.000000       0.000000
        52         1       0.000000       0.000000       0.000000       0.000000         1       1.071947     -15.446851     220.000000         2       1.110000       0.950000     106.024300      -0.106400       0.000000       0.000000
        53         1       0.000000       0.000000       0.000000       0.000000         1       1.030107     -11.598618     400.000000         2       1.050000       0.950000     103.543100      -0.219800       0.000000       0.000000
        54         1       0.000000       0.000000       0.000000       0.000000         1       1.030115     -11.597008     400.000000         2       1.050000       0.950000     103.541900      -0.220600       0.000000       0.000000
        55         2      12.000000       0.000000       0.000000       0.000000         1       1.091210      -9.821657     220.000000         2       1.110000       0.950000     102.679300      -0.130600       0.000000       0.000000
        56         2      11.436000       0.000000       0.000000       0.000000         1       1.091150      -9.818734     220.000000         2       1.110000       0.950000     102.675600      -0.128200       0.000000       0.000000
        57         2      12.000000       0.000000       0.000000       0.000000         1       1.033360     -10.558226     400.000000         2       1.050000       0.950000     102.962400      -0.455500       0.000000       0.000000
        58         2      11.436000       0.000000       0.000000       0.000000         1       1.033370     -10.563216     400.000000         2       1.050000       0.950000     102.964900      -0.455400       0.000000       0.000000
        59         2     167.518000      60.000000       0.000000       0.000000         1       1.084150     -11.726590     220.000000         2       1.110000       0.950000     103.638200       0.044700       0.000000       0.000000
        60         1       0.000000       0.000000       0.000000       0.000000         1       1.084167     -11.726749     220.000000         2       1.110000       0.950000     103.637600       0.044000       0.000000       0.000000
        61         1       0.000000       0.000000       0.000000       0.000000         1       1.085469     -10.524756     220.000000         2       1.110000       0.950000     103.160300      -0.160000       0.000000       0.000000
        62         1       0.000000       0.000000       0.000000       0.000000         1       1.084676     -11.446533     220.000000         2       1.110000       0.950000     103.656200       0.031100       0.000000       0.000000
        63         1       0.000000       0.000000       0.000000       0.000000         1       1.084671     -11.449863     220.000000         2       1.110000       0.950000     103.656800       0.031700       0.000000       0.000000
        64         1       0.000000       0.000000       0.000000       0.000000         1       1.033554     -12.177471     400.000000         2       1.050000       0.950000     103.346900      -0.645000       0.000000       0.000000
        65         1       0.000000       0.000000       0.000000       0.000000         1       1.033533     -12.189821     400.000000         2       1.050000       0.950000     103.350800      -0.645500       0.000000       0.000000
        66         1       0.000000       0.000000       0.000000       0.000000         1       1.078806     -13.213823     220.000000         2       1.110000       0.950000     104.323600      -0.010700       0.000000       0.000000
        67         1       0.000000       0.000000       0.000000       0.000000         1       1.080480     -12.953399     220.000000         2       1.110000       0.950000     104.180000      -0.036500       0.000000       0.000000
        68         1       0.000000       0.000000       0.000000       0.000000         1       1.072691     -14.930089     220.000000         2       1.110000       0.950000     105.818100      -0.057600       0.000000       0.000000
        69         1       0.000000       0.000000       0.000000       0.000000         1       1.084103      -4.641744     220.000000         3       1.110000       0.950000     100.149100      -0.167900       0.000000       0.000000
        70         1       7.123000       0.000000       0.000000       0.000000         1       1.082612     -10.083409     220.000000         3       1.110000       0.950000     103.016800       0.033500       0.000000       0.000000
        71         1       8.310000       0.933000       0.000000       0.000000         1       1.082585     -10.086231     220.000000         3       1.110000       0.950000     103.019200       0.034300       0.000000       0.000000
        72         1       0.000000       0.000000       0.000000       0.000000         1       1.084963      -4.475617     220.000000         3       1.110000       0.950000      99.854300       0.099800       0.000000       0.000000
        73         1       0.000000       0.000000       0.000000       0.000000         1       1.085042      -4.466396     220.000000         3       1.110000       0.950000      99.850900       0.098700       0.000000       0.000000
        74         1       0.000000       0.000000       0.000000       0.000000         1       1.083053      -4.933098     220.000000         3       1.110000       0.950000     100.040800       0.113500       0.000000       0.000000
        75         1       0.000000       0.000000       0.000000       0.000000         1       1.083010      -4.937307     220.000000         3       1.110000       0.950000     100.042600       0.114000       0.000000       0.000000
        76         1       0.000000       0.000000       0.000000       0.000000         1       1.088925      -3.527799     220.000000         3       1.110000       0.950000      99.528700       0.037100       0.000000       0.000000
        77         1       0.000000       0.000000       0.000000       0.000000         1       1.088875      -3.536007     220.000000         3       1.110000       0.950000      99.533000       0.038200       0.000000       0.000000
        78         2      27.000000      70.000000       0.000000       0.000000         1       1.090910      -3.854353     220.000000         3       1.110000       0.950000      99.506800       0.000000     748.347800       0.000000
        79         2       9.000000      21.000000       0.000000       0.000000         1       1.090340      -4.036574     220.000000         3       1.110000       0.950000      99.630600       0.001100       0.000000       0.000000
        80         1      10.328000       2.610000       0.000000       0.000000         1       1.077682      -5.306519     220.000000         3       1.110000       0.950000     100.422500       0.276500       0.000000       0.000000
        81         1       0.000000       0.000000       0.000000       0.000000         1       1.077695      -5.305140     220.000000         3       1.110000       0.950000     100.422000       0.276300       0.000000       0.000000
        82         2      35.000000     108.000000       0.000000       0.000000         1       1.029930      -3.785204     400.000000         3       1.050000       0.950000      99.200800       0.000000       0.000000       0.000000
        83         1       0.000000       0.000000       0.000000       0.000000         1       1.078421      -6.714276     220.000000         3       1.110000       0.950000     100.519200       0.312400       0.000000       0.000000
        84         1       0.000000       0.000000       0.000000       0.000000         1       1.086680      -4.047506     220.000000         3       1.110000       0.950000      99.438600       0.055400       0.000000       0.000000
        85         1       0.000000       0.000000       0.000000       0.000000         1       1.086671      -4.049546     220.000000         3       1.110000       0.950000      99.440500       0.055800       0.000000       0.000000
        86         1      37.893000      12.351000       0.000000       0.000000         1       1.085259      -4.510417     220.000000         3       1.110000       0.950000      99.981200      -0.136700       0.000000       0.000000
        87         1       0.000000       0.000000       0.000000       0.000000         1       1.085232      -4.516598     220.000000         3       1.110000       0.950000      99.983200      -0.137000       0.000000       0.000000
        88         1       0.000000       0.000000       0.000000       0.000000         1       1.087137      -4.024357     220.000000         3       1.110000       0.950000      99.374000       0.087700       0.000000       0.000000
        89         1       0.000000       0.000000       0.000000       0.000000         1       1.087112      -4.025744     220.000000         3       1.110000       0.950000      99.375300       0.088300       0.000000       0.000000
        90         1       0.000000       0.000000       0.000000       0.000000         1       1.088238      -4.050633     220.000000         3       1.110000       0.950000      99.769000      -0.156500       0.000000       0.000000
        91         1       0.000000       0.000000       0.000000       0.000000         1       1.088213      -4.056379     220.000000         3       1.110000       0.950000      99.771600      -0.156400       0.000000       0.000000
        92         1       0.000000       0.000000       0.000000       0.000000         1       1.031254      -2.362232     400.000000         3       1.050000       0.950000      99.487300      -0.260600       0.000000       0.000000
        93         1       0.000000       0.000000       0.000000       0.000000         1       1.031259      -2.364167     400.000000         3       1.050000       0.950000      99.487500      -0.261000       0.000000       0.000000
        94         1       0.000000       0.000000       0.000000       0.000000         1       1.089405      -3.769425     220.000000         3       1.110000       0.950000      99.045800       0.021300       0.000000       0.000000
        95         1       0.000000       0.000000       0.000000       0.000000         1       1.089406      -3.768336     220.000000         3       1.110000       0.950000      99.045200       0.021100       0.000000       0.000000
        96         1       0.000000       0.000000       0.000000       0.000000         1       1.082332      -5.756975     220.000000         3       1.110000       0.950000     100.212000       0.187200       0.000000       0.000000
        97         1       0.000000       0.000000       0.000000       0.000000         1       1.082323      -5.761765     220.000000         3       1.110000       0.950000     100.212800       0.187900       0.000000       0.000000
        98         1      16.027000       7.274000       0.000000       0.000000         1       1.088057      -4.840416     220.000000         3       1.110000       0.950000     100.047700      -0.030300       0.000000       0.000000
        99         1       7.764000       0.258000       0.000000       0.000000         1       1.088055      -4.845689     220.000000         3       1.110000       0.950000     100.049800      -0.030800       0.000000       0.000000
       100         1       0.000000       0.000000       0.000000       0.000000         1       1.082669     -10.066618     220.000000         3       1.110000       0.950000     103.008000       0.033600       0.000000       0.000000
       101         1       0.000000       0.000000       0.000000       0.000000         1       1.082644     -10.066268     220.000000         3       1.110000       0.950000     103.007200       0.034100       0.000000       0.000000
       102         1       0.000000       0.000000       0.000000       0.000000         1       1.082199      -4.624257     220.000000         3       1.110000       0.950000     100.161500       0.164600       0.000000       0.000000
       103         1       0.000000       0.000000       0.000000       0.000000         1       1.082115      -4.634641     220.000000         3       1.110000       0.950000     100.166000       0.166200       0.000000       0.000000
       104         2      14.000000      40.000000       0.000000       0.000000         1       1.090910      -3.477012     220.000000         3       1.110000       0.950000      99.070500       0.000000     851.435400       0.000000
       105         2      14.000000      40.000000       0.000000       0.000000         1       1.090910      -3.477395     220.000000         3       1.110000       0.950000      99.067900       0.001000       0.000000       0.000000
       106         2       7.000000      18.000000       0.000000       0.000000         1       1.090910      -3.714812     220.000000         3       1.110000       0.950000      99.131200      -0.000000       0.000000       0.000000
       107         2       8.000000      15.000000       0.000000       0.000000         1       1.090910      -3.714734     220.000000         3       1.110000       0.950000      99.133100       0.000900       0.000000       0.000000
       108         1       1.044000       0.000000       0.000000       0.000000         1       1.087392      -5.346489     220.000000         3       1.110000       0.950000     100.315200      -0.085300       0.000000       0.000000
       109         1       1.259000       0.000000       0.000000       0.000000         1       1.087422      -5.353219     220.000000         3       1.110000       0.950000     100.316600      -0.084600       0.000000       0.000000
       110         1       0.000000       0.000000       0.000000       0.000000         1       1.084502      -6.606142     220.000000         3       1.110000       0.950000     101.186600       0.019900       0.000000       0.000000
       111         1       0.000000       0.000000       0.000000       0.000000         1       1.074996      -5.358247     220.000000         3       1.110000       0.950000     100.476600       0.379800       0.000000       0.000000
       112         1       0.000000       0.000000       0.000000       0.000000         1       1.075016      -5.357971     220.000000         3       1.110000       0.950000     100.476400       0.379400       0.000000       0.000000
       113         1       0.000000       0.000000       0.000000       0.000000         1       1.078475      -5.208195     220.000000         3       1.110000       0.950000     100.368400       0.257800       0.000000       0.000000
       114         1       0.000000       0.000000       0.000000       0.000000         1       1.078557      -5.197889     220.000000         3       1.110000       0.950000     100.364300       0.256400       0.000000       0.000000
       115         1       0.000000       0.000000       0.000000       0.000000         1       1.031326      -6.180711     400.000000         3       1.050000       0.950000     100.430200      -1.332800       0.000000       0.000000
       116         2       0.000000       0.000000       0.000000       0.000000         1       1.090414      -4.546062     220.000000         3       1.110000       0.950000      99.887800       0.000500       0.000000       0.000000
       117         2       8.000000      15.000000       0.000000       0.000000         1       1.090460      -4.539081     220.000000         3       1.110000       0.950000      99.885800       0.000000       0.000000       0.000000
       118         2       5.500000      10.000000       0.000000       0.000000         1       1.089000      -5.911150     220.000000         3       1.110000       0.950000     100.874500      -0.064800       0.000000       0.000000
       119         1       0.000000       0.000000       0.000000       0.000000         1       1.088950      -5.923457     220.000000         3       1.110000       0.950000     100.879400      -0.064200       0.000000       0.000000
       120         1       0.000000       0.000000       0.000000       0.000000         1       1.035420     -10.750876     400.000000         3       1.050000       0.950000     102.860100      -0.860700       0.000000       0.000000
       121         1       0.000000       0.000000       0.000000       0.000000         1       1.035461     -10.742818     400.000000         3       1.050000       0.950000     102.855900      -0.862700       0.000000       0.000000
       122         1       0.000000       0.000000       0.000000       0.000000         1       1.037421      -6.384762     400.000000         3       1.050000       0.950000     100.577200      -2.375300       0.000000       0.000000
       123         1       0.000000       0.000000       0.000000       0.000000         1       1.037430      -6.379254     400.000000         3       1.050000       0.950000     100.575300      -2.384400   29819.595100       0.000000
       124         1       0.000000       0.000000       0.000000       0.000000         1       1.084534      -6.715883     220.000000         3       1.110000       0.950000     101.336500      -0.003700       0.000000       0.000000
       125         2      18.343000      21.865000       0.000000       0.000000         1       1.090910      -4.108795     220.000000         3       1.110000       0.950000      99.543000       0.000000       0.000000       0.000000
       126         2      28.469000      34.292000       0.000000       0.000000         1       1.090820      -4.110303     220.000000         3       1.110000       0.950000      99.546000       0.002500       0.000000       0.000000