# Imported from MATPOWER Case Format
mpc.version
2
mpc.version.end

# System MVA base
mpc.baseMVA
100
mpc.baseMVA.end

# Bus data: bus_i	type	Pd	Qd	Gs	Bs	area	Vm	Va	baseKV	zone	Vmax	Vmin
mpc.bus
         1         2       0.000000       0.000000       0.000000       0.000000         1       1.000000       3.273361     230.000000         1       1.100000       0.900000
         2         1     300.000000      98.610000       0.000000       0.000000         1       0.989261      -0.759269     230.000000         1       1.100000       0.900000
         3         2     300.000000      98.610000       0.000000       0.000000         1       1.000000      -0.492259     230.000000         1       1.100000       0.900000
         4         3     400.000000     131.470000       0.000000       0.000000         1       1.000000       0.000000     230.000000         1       1.100000       0.900000
         5         2       0.000000       0.000000       0.000000       0.000000         1       1.000000       4.112031     230.000000         1       1.100000       0.900000
mpc.bus.end

# generator data: bus	Pg	Qg	Qmax	Qmin	Vg	mBase	status	Pmax	Pmin	Pc1	Pc2	Qc1min	Qc1max	Qc2min	Qc2max	ramp_agc	ramp_10	ramp_30	ramp_q	apf
mpc.gen
         1      40.000000       5.852411      30.000000     -30.000000       1.000000     100.000000       1.000000      40.000000       0.000000       0.000000       0.000000       0.000000       0.000000       0.000000       0.000000       0.000000       0.000000       0.000000       0.000000       0.000000
         1     170.000000      24.872748     127.500000    -127.500000       1.000000     100.000000       1.000000     170.000000       0.000000       0.000000       0.000000       0.000000       0.000000       0.000000       0.000000       0.000000       0.000000       0.000000       0.000000       0.000000
         3     323.490000     194.654720     390.000000    -390.000000       1.000000     100.000000       1.000000     520.000000       0.000000       0.000000       0.000000       0.000000       0.000000       0.000000       0.000000       0.000000       0.000000       0.000000       0.000000       0.000000
         4       5.027180     184.122930     150.000000    -150.000000       1.000000     100.000000       1.000000     200.000000       0.000000       0.000000       0.000000       0.000000       0.000000       0.000000       0.000000       0.000000       0.000000       0.000000       0.000000       0.000000
         5     466.510000     -38.209623     450.000000    -450.000000       1.000000     100.000000       1.000000     600.000000       0.000000       0.000000       0.000000       0.000000       0.000000       0.000000       0.000000       0.000000       0.000000       0.000000       0.000000       0.000000
mpc.gen.end

# branch data: fbus	tbus	r	x	b	rateA	rateB	rateC	ratio	angle	status	angmin	angmax PF* QF* PT* QT*
mpc.branch
         1         2       0.002810       0.028100       0.007120     400.000000     400.000000     400.000000       0.000000       0.000000         1    -360.000000     360.000000     249.773373      21.599095    -248.006760      -4.637368
         1         4       0.003040       0.030400       0.006580       0.000000       0.000000       0.000000       0.000000       0.000000         1    -360.000000     360.000000     186.500142     -13.612148    -185.437396      23.581606
         1         5       0.000640       0.006400       0.031260       0.000000       0.000000       0.000000       0.000000       0.000000         1    -360.000000     360.000000    -226.273515      22.738212     226.604972     -22.549636
         2         3       0.001080       0.010800       0.018520       0.000000       0.000000       0.000000       0.000000       0.000000         1    -360.000000     360.000000     -51.993240     -93.972632      52.118657      93.394588
         3         4       0.002970       0.029700       0.006740       0.000000       0.000000       0.000000       0.000000       0.000000         1    -360.000000     360.000000     -28.628657       2.650132      28.653264      -3.078060
         4         5       0.002970       0.029700       0.006740     240.000000     240.000000     240.000000       0.000000       0.000000         1    -360.000000     360.000000    -238.188688      32.149384     239.905028     -15.659987
mpc.branch.end

