# Imported from MATPOWER Case Format
mpc.version
2
mpc.version.end

# System MVA base
mpc.baseMVA
100
mpc.baseMVA.end

# Bus data: bus_i	type	Pd	Qd	Gs	Bs	area	Vm	Va	baseKV	zone	Vmax	Vmin
mpc.bus
         1         1       0.000000       0.000000       0.000000       0.000000         1       1.076096       3.341106     220.000000         1       1.110000       0.950000      89.482200       0.177000       0.000000       0.000000
         2         1       0.000000       0.000000       0.000000       0.000000         1       1.086978       2.191070     220.000000         1       1.110000       0.950000      89.824600      -0.034100       0.000000       0.000000
         3         1       0.000000       0.000000       0.000000       0.000000         1       1.079957     -13.169559     220.000000         1       1.110000       0.950000      96.402400      -0.343300       0.000000       0.000000
         4         1       0.000000       0.000000       0.000000       0.000000         1       1.074731      -0.139546     220.000000         1       1.110000       0.950000      90.738100       0.016600       0.000000       0.000000
         5         1       0.000000       0.000000       0.000000       0.000000         1       1.074705      -0.134948     220.000000         1       1.110000       0.950000      90.738200       0.017100       0.000000       0.000000
         6         1       0.000000       0.000000       0.000000       0.000000         1       1.073423      -7.698912     220.000000         1       1.110000       0.950000      93.209900      -0.476800       0.000000       0.000000
         7         1       0.000000       0.000000       0.000000       0.000000         1       1.073505      -7.696419     220.000000         1       1.110000       0.950000      93.206700      -0.478200       0.000000       0.000000
         8         1       0.000000       0.000000       0.000000     -50.000000         1       1.036143      -5.653612     400.000000         1       1.050000       0.950000      92.804900      -0.754700       0.000000       0.000000
         9         1       0.000000       0.000000       0.000000       0.000000         1       1.036173      -5.653252     400.000000         1       1.050000       0.950000      92.804300      -0.755500       0.000000       0.000000
        10         1       0.000000       0.000000       0.000000       0.000000         1       1.065901      -7.255356     220.000000         1       1.110000       0.950000      93.450200      -0.312900       0.000000       0.000000
        11         1       0.000000       0.000000       0.000000       0.000000         1       1.065856      -7.258826     220.000000         1       1.110000       0.950000      93.451500      -0.311400       0.000000       0.000000
        12         1       0.000000       0.000000       0.000000       0.000000         1       1.065834      -7.255919     220.000000         1       1.110000       0.950000      93.450900      -0.309800       0.000000       0.000000
        13         1       0.000000       0.000000       0.000000       0.000000         1       1.065827      -7.263052     220.000000         1       1.110000       0.950000      93.451400      -0.309900       0.000000       0.000000
        14         1       0.000000       0.000000       0.000000     -50.000000         1       1.027907      -4.563579     400.000000         1       1.050000       0.950000      92.462800      -0.449400       0.000000       0.000000
        15         1       0.000000       0.000000       0.000000       0.000000         1       1.048642      -7.125324     400.000000         1       1.050000       0.950000      93.032700      -1.574000       0.000000       0.000000
        16         1       0.000000       0.000000       0.000000       0.000000         1       1.048642      -7.125324     400.000000         1       1.050000       0.950000      93.032500      -1.575400    2354.086600       0.000000
        17         1       0.000000       0.000000       0.000000       0.000000         1       1.075560     -11.109548     220.000000         1       1.110000       0.950000      95.105200      -0.088000       0.000000       0.000000
        18         1       0.000000       0.000000       0.000000       0.000000         1       1.075509     -11.109532     220.000000         1       1.110000       0.950000      95.104200      -0.086100       0.000000       0.000000
        19         1       0.000000       0.000000       0.000000       0.000000         1       1.076585       0.460483     220.000000         1       1.110000       0.950000      90.458600       0.021800       0.000000       0.000000
        20         1       0.000000       0.000000       0.000000       0.000000         1       1.076592       0.455560     220.000000         1       1.110000       0.950000      90.459500       0.021800       0.000000       0.000000
        21         1       0.000000       0.000000       0.000000       0.000000         1       1.066756      -7.156777     220.000000         1       1.110000       0.950000      93.351100      -0.182400       0.000000       0.000000
        22         1       0.000000       0.000000       0.000000       0.000000         1       1.066756      -7.156777     220.000000         1       1.110000       0.950000      93.351100      -0.182400       0.000000       0.000000
        23         1       0.000000       0.000000       0.000000       0.000000         1       1.065495      -7.324553     220.000000         1       1.110000       0.950000      93.469900      -0.358400       0.000000       0.000000
        24         1       0.000000       0.000000       0.000000       0.000000         1       1.081948       0.773742     220.000000         1       1.110000       0.950000      90.379700      -0.030900       0.000000       0.000000
        25         1       0.000000       0.000000       0.000000     -50.000000         1       1.018287      -7.399744     400.000000         1       1.050000       0.950000      93.660000      -0.124500       0.000000       0.000000
        26         2      48.178000      65.087000       0.000000       0.000000         1       1.085270       3.694932     220.000000         1       1.110000       0.950000      89.301800       0.000000       0.000000       0.000000
        27         2      28.145000      35.087000       0.000000       0.000000         1       1.088270       2.169095     220.000000         1       1.110000       0.950000      89.849700      -0.065300       0.000000       0.000000
        28         3       0.000000       0.000000       0.000000       0.000000         1       1.027000       1.778080     400.000000         1       1.050000       0.950000      90.215600      -0.085100       0.000000       0.000000
        29         2      44.698000      72.000000       0.000000       0.000000         1       1.027000       1.786853     400.000000         1       1.050000       0.950000      90.212600      -0.085000       0.000000       0.000000
        30         1       0.000000       0.000000       0.000000       0.000000         1       1.063312      -7.318543     220.000000         1       1.110000       0.950000      93.552300      -0.227200       0.000000       0.000000
        31         1       0.000000       0.000000       0.000000       0.000000         1       1.027810       0.785896     400.000000         1       1.050000       0.950000      90.374500      -0.156700       0.000000       0.000000
        32         1       0.000000       0.000000       0.000000       0.000000         1       1.063970      -7.413673     220.000000         1       1.110000       0.950000      93.529700      -0.272000       0.000000       0.000000
        33         1       0.000000       0.000000       0.000000       0.000000         1       1.069415      -1.394405     220.000000         1       1.110000       0.950000      91.152500       0.034200       0.000000       0.000000
        34         1       0.000000       0.000000       0.000000       0.000000         1       1.113371      -4.004830     220.000000         2       1.110000       0.950000      90.852200      -4.439700   11730.016600       0.000000
        35         1       0.000000       0.000000       0.000000       0.000000         1       1.075033      -4.704473     220.000000         2       1.110000       0.950000      92.272600      -1.420300       0.000000       0.000000
        36         1       0.000000       0.000000       0.000000       0.000000         1       1.091991      -4.260461     220.000000         2       1.110000       0.950000      91.866500      -1.737500       0.000000       0.000000
        37         1       0.000000       0.000000       0.000000       0.000000         1       1.091940      -4.261917     220.000000         2       1.110000       0.950000      91.867600      -1.735000       0.000000       0.000000
        38         1       0.000000       0.000000       0.000000       0.000000         1       1.102746      -4.248067     220.000000         2       1.110000       0.950000      91.158400      -3.156200       0.000000       0.000000
        39         1       0.000000       0.000000       0.000000       0.000000         1       1.098526      -4.273138     220.000000         2       1.110000       0.950000      92.184700      -1.112000       0.000000       0.000000
        40         1       0.000000       0.000000       0.000000       0.000000         1       1.098449      -4.276046     220.000000         2       1.110000       0.950000      92.185900      -1.110900       0.000000       0.000000
        41         1       0.000000       0.000000       0.000000       0.000000         1       1.031526      -4.185709     400.000000         2       1.050000       0.950000      92.144000      -1.085200       0.000000       0.000000
        42         2      13.000000       0.000000       0.000000       0.000000         1       1.090860      -4.146456     220.000000         2       1.110000       0.950000      91.742500      -1.198900       0.000000       0.000000
        43         2      13.000000       0.000000       0.000000       0.000000         1       1.090910      -4.137599     220.000000         2       1.110000       0.950000      91.739800      -1.202200       0.000000       0.000000
        44         2      25.000000       0.000000       0.000000       0.000000         1       1.048170      -4.130354     400.000000         2       1.050000       0.950000      91.996600      -1.164900       0.000000       0.000000
        45         1       0.000000       0.000000       0.000000       0.000000         1       1.048215      -4.130320     400.000000         2       1.050000       0.950000      91.994700      -1.166500       0.000000       0.000000
        46         1       0.000000       0.000000       0.000000       0.000000         1       1.098207      -4.568147     220.000000         2       1.110000       0.950000      92.378500      -1.111700       0.000000       0.000000
        47         1       0.000000       0.000000       0.000000       0.000000         1       1.030955      -6.812010     400.000000         2       1.050000       0.950000      92.891600      -0.888700       0.000000       0.000000
        48         1       0.000000       0.000000       0.000000       0.000000         1       1.030959      -6.816284     400.000000         2       1.050000       0.950000      92.893500      -0.888500       0.000000       0.000000
        49         1       0.000000       0.000000       0.000000       0.000000         1       1.046310      -4.034381     400.000000         2       1.050000       0.950000      91.702800      -1.508600       0.000000       0.000000
        50         1       0.000000       0.000000       0.000000       0.000000         1       1.102523      -3.677310     220.000000         2       1.110000       0.950000      90.789800      -3.246300       0.000000       0.000000
        51         1       0.000000       0.000000       0.000000       0.000000         1       1.102498      -3.674759     220.000000         2       1.110000       0.950000      90.789900      -3.244400       0.000000       0.000000
        52         1       0.000000       0.000000       0.000000       0.000000         1       1.043437      -4.559740     400.000000         2       1.050000       0.950000      92.192200      -1.184200       0.000000       0.000000
        53         1       0.000000       0.000000       0.000000       0.000000         1       1.043425      -4.558734     400.000000         2       1.050000       0.950000      92.192200      -1.184100       0.000000       0.000000
        54         1       0.000000       0.000000       0.000000       0.000000         1       1.091276      -3.948234     220.000000         2       1.110000       0.950000      91.835200      -1.369500       0.000000       0.000000
        55         2      13.000000       0.000000       0.000000       0.000000         1       1.091260      -3.941566     220.000000         2       1.110000       0.950000      91.831100      -1.371000       0.000000       0.000000
        56         2      13.000000       0.000000       0.000000       0.000000         1       1.039330      -4.094520     400.000000         2       1.050000       0.950000      92.067600      -1.104400       0.000000       0.000000
        57         2      13.000000       0.000000       0.000000       0.000000         1       1.039320      -4.098143     400.000000         2       1.050000       0.950000      92.069000      -1.104200       0.000000       0.000000
        58         2      67.882000      25.273000       0.000000       0.000000         1       1.098640      -4.357146     220.000000         2       1.110000       0.950000      91.655900      -1.966400       0.000000       0.000000
        59         1       0.000000       0.000000       0.000000       0.000000         1       1.098675      -4.354484     220.000000         2       1.110000       0.950000      91.653900      -1.972600       0.000000       0.000000
        60         1       0.000000       0.000000       0.000000       0.000000         1       1.094941      -4.653196     220.000000         2       1.110000       0.950000      92.365600      -1.130200       0.000000       0.000000
        61         1       0.000000       0.000000       0.000000       0.000000         1       1.093473      -4.562623     220.000000         2       1.110000       0.950000      92.024200      -1.323600       0.000000       0.000000
        62         1       0.000000       0.000000       0.000000       0.000000         1       1.093466      -4.562750     220.000000         2       1.110000       0.950000      92.023500      -1.325500       0.000000       0.000000
        63         1       0.000000       0.000000       0.000000       0.000000         1       1.029933      -4.947724     400.000000         2       1.050000       0.950000      92.323100      -0.919400       0.000000       0.000000
        64         1       0.000000       0.000000       0.000000       0.000000         1       1.029956      -4.955891     400.000000         2       1.050000       0.950000      92.325900      -0.919700       0.000000       0.000000
        65         1       0.000000     224.802000       0.000000       0.000000         1       1.041636      -4.930304     750.000000         2       1.050000       0.900000      92.323200      -0.902700       0.000000       0.000000
        66         1       0.000000       0.000000       0.000000       0.000000         1       1.098920      -4.499508     220.000000         2       1.110000       0.950000      91.737800      -2.543600       0.000000       0.000000
        67         1       0.000000       0.000000       0.000000       0.000000         1       1.099586      -4.409228     220.000000         2       1.110000       0.950000      91.677700      -2.587500       0.000000       0.000000
        68         1       0.000000       0.000000       0.000000       0.000000         1       1.098907      -3.169367     220.000000         2       1.110000       0.950000      90.605800      -3.029700       0.000000       0.000000
        69         1       0.000000       0.000000       0.000000       0.000000         1       1.081123      -1.613889     220.000000         3       1.110000       0.950000      91.176800      -0.220900       0.000000       0.000000
        70         1       0.000000       0.000000       0.000000       0.000000         1       1.090387      -4.816335     220.000000         3       1.110000       0.950000      92.272100      -0.922600       0.000000       0.000000
        71         1       0.000000       0.000000       0.000000       0.000000         1       1.090387      -4.814991     220.000000         3       1.110000       0.950000      92.271500      -0.923700       0.000000       0.000000
        72         1       0.000000       0.000000       0.000000       0.000000         1       1.066144      -4.609267     220.000000         3       1.110000       0.950000      92.385100       0.011400       0.000000       0.000000
        73         1       0.000000       0.000000       0.000000       0.000000         1       1.066149      -4.596813     220.000000         3       1.110000       0.950000      92.381700       0.011100       0.000000       0.000000
        74         1       0.000000       0.000000       0.000000       0.000000         1       1.072331      -3.510794     220.000000         3       1.110000       0.950000      91.765100      -0.066400       0.000000       0.000000
        75         1       0.000000       0.000000       0.000000       0.000000         1       1.072315      -3.512204     220.000000         3       1.110000       0.950000      91.766000      -0.066400       0.000000       0.000000
        76         1       0.000000       0.000000       0.000000       0.000000         1       1.063696      -8.404735     220.000000         3       1.110000       0.950000      94.181400       0.010200       0.000000       0.000000
        77         1       0.000000       0.000000       0.000000       0.000000         1       1.063684      -8.408168     220.000000         3       1.110000       0.950000      94.183200       0.010300       0.000000       0.000000
        78         2      27.000000      70.000000       0.000000       0.000000         1       1.067230      -3.748872     220.000000         3       1.110000       0.950000      92.018600       0.000000       0.000000       0.000000
        79         2       9.000000      21.000000       0.000000       0.000000         1       1.070770      -4.380149     220.000000         3       1.110000       0.950000      92.315600      -0.043300       0.000000       0.000000
        80         1       4.602000       0.910000       0.000000       0.000000         1       1.065543      -4.451073     220.000000         3       1.110000       0.950000      92.418700       0.015700       0.000000       0.000000
        81         1       0.000000       0.000000       0.000000       0.000000         1       1.065545      -4.451325     220.000000         3       1.110000       0.950000      92.419100       0.015500       0.000000       0.000000
        82         2      18.000000      57.000000       0.000000       0.000000         1       1.018600      -0.685359     400.000000         3       1.050000       0.950000      90.782500      -0.175700       0.000000       0.000000
        83         1       0.000000       0.000000       0.000000       0.000000         1       1.087532      -2.609993     220.000000         3       1.110000       0.950000      91.179800      -0.355700       0.000000       0.000000
        84         1       0.000000       0.000000       0.000000       0.000000         1       1.069729      -4.253274     220.000000         3       1.110000       0.950000      92.107700      -0.008400       0.000000       0.000000
        85         1       0.000000       0.000000       0.000000       0.000000         1       1.069717      -4.254829     220.000000         3       1.110000       0.950000      92.108700      -0.008500       0.000000       0.000000
        86         1      32.969000      -8.400000       0.000000       0.000000         1       1.081645      -1.763735     220.000000         3       1.110000       0.950000      91.210900      -0.233200       0.000000       0.000000
        87         1       0.000000       0.000000       0.000000       0.000000         1       1.081639      -1.768375     220.000000         3       1.110000       0.950000      91.212400      -0.233200       0.000000       0.000000
        88         1       0.000000       0.000000       0.000000       0.000000         1       1.064831      -3.780819     220.000000         3       1.110000       0.950000      91.970200       0.058400       0.000000       0.000000
        89         1       0.000000       0.000000       0.000000       0.000000         1       1.064805      -3.781255     220.000000         3       1.110000       0.950000      91.970200       0.058400       0.000000       0.000000
        90         1       0.000000       0.000000       0.000000       0.000000         1       1.081649      -1.381883     220.000000         3       1.110000       0.950000      91.045700      -0.212700       0.000000       0.000000
        91         1       0.000000       0.000000       0.000000       0.000000         1       1.081675      -1.385550     220.000000         3       1.110000       0.950000      91.046200      -0.213600       0.000000       0.000000
        92         1       0.000000       0.000000       0.000000       0.000000         1       1.030376      -0.003352     400.000000         3       1.050000       0.950000      90.787500      -0.204700       0.000000       0.000000
        93         1       0.000000       0.000000       0.000000       0.000000         1       1.030366      -0.004388     400.000000         3       1.050000       0.950000      90.787700      -0.204600       0.000000       0.000000
        94         1       0.000000       0.000000       0.000000       0.000000         1       1.067498      -3.875475     220.000000         3       1.110000       0.950000      91.940500       0.009200       0.000000       0.000000
        95         1       0.000000       0.000000       0.000000       0.000000         1       1.067515      -3.880612     220.000000         3       1.110000       0.950000      91.941900       0.009200       0.000000       0.000000
        96         1       0.000000       0.000000       0.000000       0.000000         1       1.078360      -3.056475     220.000000         3       1.110000       0.950000      91.434000      -0.149500       0.000000       0.000000
        97         1       0.000000       0.000000       0.000000       0.000000         1       1.078411      -3.054205     220.000000         3       1.110000       0.950000      91.433000      -0.150400       0.000000       0.000000
        98         2       9.938000       2.190000       0.000000       0.000000         1       1.074160      -4.027339     220.000000         3       1.110000       0.950000      92.155200      -0.139300       0.000000       0.000000
        99         1      16.652000       3.293000       0.000000       0.000000         1       1.074179      -4.024801     220.000000         3       1.110000       0.950000      92.154400      -0.140000       0.000000       0.000000
       100         1       0.000000       0.000000       0.000000       0.000000         1       1.090368      -4.814828     220.000000         3       1.110000       0.950000      92.271500      -0.923200       0.000000       0.000000
       101         1       0.000000       0.000000       0.000000       0.000000         1       1.090367      -4.816172     220.000000         3       1.110000       0.950000      92.272100      -0.922100       0.000000       0.000000
       102         1       0.000000       0.000000       0.000000       0.000000         1       1.063214      -7.805643     220.000000         3       1.110000       0.950000      93.953700       0.032400       0.000000       0.000000
       103         1       0.000000       0.000000       0.000000       0.000000         1       1.063206      -7.794845     220.000000         3       1.110000       0.950000      93.950200       0.032500       0.000000       0.000000
       104         2      14.000000      40.000000       0.000000       0.000000         1       1.069270      -4.249396     220.000000         3       1.110000       0.950000      92.132200       0.000000       0.000000       0.000000
       105         1       0.000000       0.000000       0.000000       0.000000         1       1.069167      -4.269166     220.000000         3       1.110000       0.950000      92.139700       0.001600       0.000000       0.000000
       106         2       7.000000      18.000000       0.000000       0.000000         1       1.068430      -3.469983     220.000000         3       1.110000       0.950000      91.796200       0.000000       0.000000       0.000000
       107         1       0.000000       0.000000       0.000000       0.000000         1       1.068396      -3.469751     220.000000         3       1.110000       0.950000      91.796400      -0.000200       0.000000       0.000000
       108         1      27.630000       5.872000       0.000000       0.000000         1       1.077294      -3.542702     220.000000         3       1.110000       0.950000      91.950300      -0.235900       0.000000       0.000000
       109         1      17.522000       3.337000       0.000000       0.000000         1       1.077331      -3.550391     220.000000         3       1.110000       0.950000      91.952500      -0.237100       0.000000       0.000000
       110         1       0.000000       0.000000       0.000000       0.000000         1       1.067496      -4.872640     220.000000         3       1.110000       0.950000      92.658100      -0.111600       0.000000       0.000000
       111         1       0.000000       0.000000       0.000000       0.000000         1       1.064472      -4.290771     220.000000         3       1.110000       0.950000      92.266700       0.092700       0.000000       0.000000
       112         1       0.000000       0.000000       0.000000       0.000000         1       1.064486      -4.291574     220.000000         3       1.110000       0.950000      92.267200       0.092200       0.000000       0.000000
       113         1       0.000000       0.000000       0.000000       0.000000         1       1.065479      -4.468006     220.000000         3       1.110000       0.950000      92.452100       0.004400       0.000000       0.000000
       114         1       0.000000       0.000000       0.000000       0.000000         1       1.065490      -4.462714     220.000000         3       1.110000       0.950000      92.450000       0.004200       0.000000       0.000000
       115         1       0.000000       0.000000       0.000000       0.000000         1       1.018488      -2.239217     400.000000         3       1.050000       0.950000      91.408000      -0.249100       0.000000       0.000000
       116         1       0.000000       0.000000       0.000000       0.000000         1       1.070857      -4.047935     220.000000         3       1.110000       0.950000      92.178500      -0.089000       0.000000       0.000000
       117         2       8.000000      15.000000       0.000000       0.000000         1       1.070820      -4.038046     220.000000         3       1.110000       0.950000      92.175700      -0.088300       0.000000       0.000000
       118         1       0.000000       0.000000       0.000000       0.000000         1       1.070624      -4.660350     220.000000         3       1.110000       0.950000      92.470500      -0.188700       0.000000       0.000000
       119         1       0.000000       0.000000       0.000000       0.000000         1       1.070641      -4.659124     220.000000         3       1.110000       0.950000      92.469600      -0.189600       0.000000       0.000000
       120         1       0.000000       0.000000       0.000000       0.000000         1       1.037948      -4.264803     400.000000         3       1.050000       0.950000      92.127700      -0.960300       0.000000       0.000000
       121         1       0.000000       0.000000       0.000000       0.000000         1       1.037980      -4.260678     400.000000         3       1.050000       0.950000      92.126000      -0.960500       0.000000       0.000000
       122         1       0.000000       0.000000       0.000000       0.000000         1       1.026163      -2.062965     400.000000         3       1.050000       0.950000      91.330100      -0.380400       0.000000       0.000000
       123         1       0.000000       0.000000       0.000000       0.000000         1       1.026222      -2.060006     400.000000         3       1.050000       0.950000      91.329200      -0.381300       0.000000       0.000000
       124         1       0.000000       0.000000       0.000000       0.000000         1       1.067019      -4.949083     220.000000         3       1.110000       0.950000      92.721200      -0.113400       0.000000       0.000000
       125         1       2.929000       0.867000       0.000000       0.000000         1       1.074408      -3.232301     220.000000         3       1.110000       0.950000      91.551100      -0.054300       0.000000       0.000000
       126         2      19.898000      27.707000       0.000000       0.000000         1       1.074210      -3.226448     220.000000         3       1.110000       0.950000      91.551400      -0.051400       0.000000       0.000000