# Imported from MATPOWER Case Format
mpc.version
2
mpc.version.end

# System MVA base
mpc.baseMVA
100
mpc.baseMVA.end

# Bus data: bus_i	type	Pd	Qd	Gs	Bs	area	Vm	Va	baseKV	zone	Vmax	Vmin
mpc.bus
         1         3       0.000000       0.000000       0.000000       0.000000         1       1.000000       0.000000     135.000000         1       1.050000       0.950000
         2         2      21.700000      12.700000       0.000000       0.000000         1       1.000000      -0.415491     135.000000         1       1.100000       0.950000
         3         1       2.400000       1.200000       0.000000       0.000000         1       0.983138      -1.522074     135.000000         1       1.050000       0.950000
         4         1       7.600000       1.600000       0.000000       0.000000         1       0.980093      -1.794728     135.000000         1       1.050000       0.950000
         5         1       0.000000       0.000000       0.000000       0.190000         1       0.982406      -1.863823     135.000000         1       1.050000       0.950000
         6         1       0.000000       0.000000       0.000000       0.000000         1       0.973184      -2.266957     135.000000         1       1.050000       0.950000
         7         1      22.800000      10.900000       0.000000       0.000000         1       0.967355      -2.651837     135.000000         1       1.050000       0.950000
         8         1      30.000000      30.000000       0.000000       0.000000         1       0.960624      -2.725769     135.000000         1       1.050000       0.950000
         9         1       0.000000       0.000000       0.000000       0.000000         1       0.980506      -2.996933     135.000000         1       1.050000       0.950000
        10         1       5.800000       2.000000       0.000000       0.000000         3       0.984404      -3.374936     135.000000         1       1.050000       0.950000
        11         1       0.000000       0.000000       0.000000       0.000000         1       0.980506      -2.996933     135.000000         1       1.050000       0.950000
        12         1      11.200000       7.500000       0.000000       0.000000         2       0.985468      -1.536912     135.000000         1       1.050000       0.950000
        13         2       0.000000       0.000000       0.000000       0.000000         2       1.000000       1.476163     135.000000         1       1.100000       0.950000
        14         1       6.200000       1.600000       0.000000       0.000000         2       0.976677      -2.308035     135.000000         1       1.050000       0.950000
        15         1       8.200000       2.500000       0.000000       0.000000         2       0.980229      -2.311835     135.000000         1       1.050000       0.950000
        16         1       3.500000       1.800000       0.000000       0.000000         2       0.977396      -2.644486     135.000000         1       1.050000       0.950000
        17         1       9.000000       5.800000       0.000000       0.000000         2       0.976865      -3.392339     135.000000         1       1.050000       0.950000
        18         1       3.200000       0.900000       0.000000       0.000000         2       0.968440      -3.478388     135.000000         1       1.050000       0.950000
        19         1       9.500000       3.400000       0.000000       0.000000         2       0.965287      -3.958205     135.000000         1       1.050000       0.950000
        20         1       2.200000       0.700000       0.000000       0.000000         2       0.969166      -3.871024     135.000000         1       1.050000       0.950000
        21         1      17.500000      11.200000       0.000000       0.000000         3       0.993383      -3.488393     135.000000         1       1.050000       0.950000
        22         2       0.000000       0.000000       0.000000       0.000000         3       1.000000      -3.392729     135.000000         1       1.100000       0.950000
        23         2       3.200000       1.600000       0.000000       0.000000         2       1.000000      -1.589228     135.000000         1       1.100000       0.950000
        24         1       8.700000       6.700000       0.000000       0.040000         3       0.988566      -2.631461     135.000000         1       1.050000       0.950000
        25         1       0.000000       0.000000       0.000000       0.000000         3       0.990215      -1.689989     135.000000         1       1.050000       0.950000
        26         1       3.500000       2.300000       0.000000       0.000000         3       0.972194      -2.139346     135.000000         1       1.050000       0.950000
        27         2       0.000000       0.000000       0.000000       0.000000         3       1.000000      -0.828439     135.000000         1       1.100000       0.950000
        28         1       0.000000       0.000000       0.000000       0.000000         1       0.974715      -2.265929     135.000000         1       1.050000       0.950000
        29         1       2.400000       0.900000       0.000000       0.000000         3       0.979597      -2.128498     135.000000         1       1.050000       0.950000
        30         1      10.600000       1.900000       0.000000       0.000000         3       0.967883      -3.041524     135.000000         1       1.050000       0.950000
mpc.bus.end

# generator data: bus	Pg	Qg	Qmax	Qmin	Vg	mBase	status	Pmax	Pmin	Pc1	Pc2	Qc1min	Qc1max	Qc2min	Qc2max	ramp_agc	ramp_10	ramp_30	ramp_q	apf
mpc.gen
         1      25.973803      -0.998484     150.000000     -20.000000       1.000000     100.000000       1.000000      80.000000       0.000000       0.000000       0.000000       0.000000       0.000000       0.000000       0.000000       0.000000       0.000000       0.000000       0.000000       0.000000
         2      60.970000      31.998982      60.000000     -20.000000       1.000000     100.000000       1.000000      80.000000       0.000000       0.000000       0.000000       0.000000       0.000000       0.000000       0.000000       0.000000       0.000000       0.000000       0.000000       0.000000
        22      21.590000      39.569968      62.500000     -15.000000       1.000000     100.000000       1.000000      50.000000       0.000000       0.000000       0.000000       0.000000       0.000000       0.000000       0.000000       0.000000       0.000000       0.000000       0.000000       0.000000
        27      26.910000      10.540510      48.700000     -15.000000       1.000000     100.000000       1.000000      55.000000       0.000000       0.000000       0.000000       0.000000       0.000000       0.000000       0.000000       0.000000       0.000000       0.000000       0.000000       0.000000
        23      19.200000       7.950952      40.000000     -10.000000       1.000000     100.000000       1.000000      30.000000       0.000000       0.000000       0.000000       0.000000       0.000000       0.000000       0.000000       0.000000       0.000000       0.000000       0.000000       0.000000
        13      37.000000      11.352877      44.700000     -15.000000       1.000000     100.000000       1.000000      40.000000       0.000000       0.000000       0.000000       0.000000       0.000000       0.000000       0.000000       0.000000       0.000000       0.000000       0.000000       0.000000
mpc.gen.end

# branch data: fbus	tbus	r	x	b	rateA	rateB	rateC	ratio	angle	status	angmin	angmax PF* QF* PT* QT*
mpc.branch
         1         2       0.020000       0.060000       0.030000     130.000000     130.000000     130.000000       0.000000       0.000000         1    -360.000000     360.000000      10.890573      -5.086369     -10.864280       2.165249
         1         3       0.050000       0.190000       0.020000     130.000000     130.000000     130.000000       0.000000       0.000000         1    -360.000000     360.000000      15.083230       4.087885     -14.956535      -5.573004
         2         4       0.060000       0.170000       0.020000      65.000000      65.000000      65.000000       0.000000       0.000000         1    -360.000000     360.000000      16.067334       5.206211     -15.889328      -6.662444
         3         4       0.010000       0.040000       0.000000     130.000000     130.000000     130.000000       0.000000       0.000000         1    -360.000000     360.000000      12.556535       4.373004     -12.538244      -4.299841
         2         5       0.050000       0.200000       0.020000     130.000000     130.000000     130.000000       0.000000       0.000000         1    -360.000000     360.000000      13.791855       4.505865     -13.681590      -6.029928
         2         6       0.060000       0.180000       0.020000      65.000000      65.000000      65.000000       0.000000       0.000000         1    -360.000000     360.000000      20.275090       7.421657     -19.985888      -8.501138
         4         6       0.010000       0.040000       0.000000      90.000000      90.000000      90.000000       0.000000       0.000000         1    -360.000000     360.000000      22.499135      11.384799     -22.432943     -11.120033
         5         7       0.050000       0.120000       0.010000      70.000000      70.000000      70.000000       0.000000       0.000000         1    -360.000000     360.000000      13.681590       6.213301     -13.561388      -6.875264
         6         7       0.030000       0.080000       0.010000     130.000000     130.000000     130.000000       0.000000       0.000000         1    -360.000000     360.000000       9.270031       3.167088      -9.238612      -4.024736
         6         8       0.010000       0.040000       0.000000      32.000000      32.000000      32.000000       0.000000       0.000000         1    -360.000000     360.000000      24.822310      24.428096     -24.694246     -23.915840
         6         9       0.000000       0.210000       0.000000      65.000000      65.000000      65.000000       0.000000       0.000000         1    -360.000000     360.000000       5.788958      -3.356335      -5.788958       3.455620
         6        10       0.000000       0.560000       0.000000      32.000000      32.000000      32.000000       0.000000       0.000000         1    -360.000000     360.000000       3.307976      -1.917906      -3.307976       2.004358
         9        11       0.000000       0.210000       0.000000      65.000000      65.000000      65.000000       0.000000       0.000000         1    -360.000000     360.000000       0.000000       0.000000       0.000000       0.000000
         9        10       0.000000       0.110000       0.000000      65.000000      65.000000      65.000000       0.000000       0.000000         1    -360.000000     360.000000       5.788958      -3.455620      -5.788958       3.507627
         4        12       0.000000       0.260000       0.000000      65.000000      65.000000      65.000000       0.000000       0.000000         1    -360.000000     360.000000      -1.671562      -2.022514       1.671562       2.041149
        12        13       0.000000       0.140000       0.000000      65.000000      65.000000      65.000000       0.000000       0.000000         1    -360.000000     360.000000     -37.000000      -9.255834      37.000000      11.352877
        12        14       0.120000       0.260000       0.000000      32.000000      32.000000      32.000000       0.000000       0.000000         1    -360.000000     360.000000       5.387777       0.879063      -5.350954      -0.799279
        12        15       0.070000       0.130000       0.000000      32.000000      32.000000      32.000000       0.000000       0.000000         1    -360.000000     360.000000       9.477029      -1.063399      -9.411476       1.185139
        12        16       0.090000       0.200000       0.000000      32.000000      32.000000      32.000000       0.000000       0.000000         1    -360.000000     360.000000       9.263631      -0.100979      -9.184094       0.277729
        14        15       0.220000       0.200000       0.000000      16.000000      16.000000      16.000000       0.000000       0.000000         1    -360.000000     360.000000      -0.849046      -0.800721       0.852188       0.803577
        16        17       0.080000       0.190000       0.000000      16.000000      16.000000      16.000000       0.000000       0.000000         1    -360.000000     360.000000       5.684094      -2.077729      -5.653422       2.150574
        15        18       0.110000       0.220000       0.000000      16.000000      16.000000      16.000000       0.000000       0.000000         1    -360.000000     360.000000       9.164595       0.759692      -9.067781      -0.566064
        18        19       0.060000       0.130000       0.000000      16.000000      16.000000      16.000000       0.000000       0.000000         1    -360.000000     360.000000       5.867781      -0.333936      -5.845682       0.381815
        19        20       0.030000       0.070000       0.000000      32.000000      32.000000      32.000000       0.000000       0.000000         1    -360.000000     360.000000      -3.654318      -3.781815       3.663222       3.802592
        10        20       0.090000       0.210000       0.000000      32.000000      32.000000      32.000000       0.000000       0.000000         1    -360.000000     360.000000       5.915587       4.624777      -5.863222      -4.502592
        10        17       0.030000       0.080000       0.000000      32.000000      32.000000      32.000000       0.000000       0.000000         1    -360.000000     360.000000       3.369971       8.012956      -3.346578      -7.950574
        10        21       0.030000       0.070000       0.000000      32.000000      32.000000      32.000000       0.000000       0.000000         1    -360.000000     360.000000      -2.233826     -11.667003       2.277511      11.768934
        10        22       0.070000       0.150000       0.000000      32.000000      32.000000      32.000000       0.000000       0.000000         1    -360.000000     360.000000      -3.754797      -8.482715       3.816960       8.615920
        21        22       0.010000       0.020000       0.000000      32.000000      32.000000      32.000000       0.000000       0.000000         1    -360.000000     360.000000     -19.777511     -22.968934      19.870611      23.155134
        15        23       0.100000       0.200000       0.000000      16.000000      16.000000      16.000000       0.000000       0.000000         1    -360.000000     360.000000      -8.805306      -5.248409       8.914667       5.467130
        22        24       0.120000       0.180000       0.000000      16.000000      16.000000      16.000000       0.000000       0.000000         1    -360.000000     360.000000      -2.097570       7.798914       2.175838      -7.681513
        23        24       0.130000       0.270000       0.000000      16.000000      16.000000      16.000000       0.000000       0.000000         1    -360.000000     360.000000       7.085333       0.883822      -7.019055      -0.746168
        24        25       0.190000       0.330000       0.000000      16.000000      16.000000      16.000000       0.000000       0.000000         1    -360.000000     360.000000      -3.856782       1.766771       3.891771      -1.706002
        25        26       0.250000       0.380000       0.000000      16.000000      16.000000      16.000000       0.000000       0.000000         1    -360.000000     360.000000       3.546394       2.370519      -3.500000      -2.300000
        25        27       0.110000       0.210000       0.000000      16.000000      16.000000      16.000000       0.000000       0.000000         1    -360.000000     360.000000      -7.438165      -0.664517       7.500728       0.783956
        28        27       0.000000       0.400000       0.000000      65.000000      65.000000      65.000000       0.000000       0.000000         1    -360.000000     360.000000      -6.112995      -6.084753       6.112995       6.397963
        27        29       0.220000       0.420000       0.000000      16.000000      16.000000      16.000000       0.000000       0.000000         1    -360.000000     360.000000       6.173882       1.684028      -6.083786      -1.512026
        27        30       0.320000       0.600000       0.000000      16.000000      16.000000      16.000000       0.000000       0.000000         1    -360.000000     360.000000       7.122395       1.674563      -6.951090      -1.353367
        29        30       0.240000       0.450000       0.000000      16.000000      16.000000      16.000000       0.000000       0.000000         1    -360.000000     360.000000       3.683786       0.612026      -3.648910      -0.546633
         8        28       0.060000       0.200000       0.020000      32.000000      32.000000      32.000000       0.000000       0.000000         1    -360.000000     360.000000      -5.305754      -6.084160       5.341379       4.330042
         6        28       0.020000       0.060000       0.010000      32.000000      32.000000      32.000000       0.000000       0.000000         1    -360.000000     360.000000      -0.770444      -2.699773       0.771616       1.754711
mpc.branch.end

