# Imported from MATPOWER Case Format
mpc.version
2
mpc.version.end

# System MVA base
mpc.baseMVA
100
mpc.baseMVA.end

# Bus data: bus_i	type	Pd	Qd	Gs	Bs	area	Vm	Va	baseKV	zone	Vmax	Vmin
mpc.bus
         1         1       0.000000       0.000000       0.000000       0.000000         1       1.081253      36.885353     220.000000         1       1.110000       0.950000      97.964200       0.173700       0.000000       0.000000
         2         1       0.000000       0.000000       0.000000       0.000000         1       1.085461      38.678385     220.000000         1       1.110000       0.950000      97.588600       0.059200       0.000000       0.000000
         3         1       0.000000       0.000000       0.000000       0.000000         1       1.061779      12.642465     220.000000         1       1.110000       0.950000     110.908600       0.140900       0.000000       0.000000
         4         1       0.000000       0.000000       0.000000       0.000000         1       1.070167      32.580441     220.000000         1       1.110000       0.950000     100.006300       0.463900       0.000000       0.000000
         5         1       0.000000       0.000000       0.000000       0.000000         1       1.070198      32.579616     220.000000         1       1.110000       0.950000     100.007300       0.463400       0.000000       0.000000
         6         1       0.000000       0.000000       0.000000       0.000000         1       1.046168      21.180043     220.000000         1       1.110000       0.950000     104.783300       0.818300       0.000000       0.000000
         7         1       0.000000       0.000000       0.000000       0.000000         1       1.046294      21.189769     220.000000         1       1.110000       0.950000     104.774500       0.815600       0.000000       0.000000
         8         1       0.000000       0.000000       0.000000       0.000000         1       1.009934      25.032975     400.000000         1       1.050000       0.950000     103.575200       0.351300       0.000000       0.000000
         9         1       0.000000       0.000000       0.000000       0.000000         1       1.009959      25.037927     400.000000         1       1.050000       0.950000     103.571800       0.350000       0.000000       0.000000
        10         1       0.000000       0.000000       0.000000       0.000000         1       1.039387      21.168394     220.000000         1       1.110000       0.950000     105.605700       1.027700       0.000000       0.000000
        11         1       0.000000       0.000000       0.000000       0.000000         1       1.039272      21.162364     220.000000         1       1.110000       0.950000     105.608000       1.029700       0.000000       0.000000
        12         1       0.000000       0.000000       0.000000       0.000000         1       1.039189      21.167362     220.000000         1       1.110000       0.950000     105.606600       1.031500       0.000000       0.000000
        13         1       0.000000       0.000000       0.000000       0.000000         1       1.039141      21.157352     220.000000         1       1.110000       0.950000     105.607700       1.032000       0.000000       0.000000
        14         1       0.000000       0.000000       0.000000       0.000000         1       1.000727      26.452984     400.000000         1       1.050000       0.950000     102.967200       0.607100       0.000000       0.000000
        15         1       0.000000       0.000000       0.000000       0.000000         1       1.014675      22.216872     400.000000         1       1.050000       0.950000     104.483200       0.063200       0.000000       0.000000
        16         1       0.000000       0.000000       0.000000       0.000000         1       1.014675      22.216872     400.000000         1       1.050000       0.950000     104.483200       0.063200       0.000000       0.000000
        17         2       0.000000       0.000000       0.000000       0.000000         1       1.071060      15.625766     220.000000         1       1.110000       0.950000     108.449900       0.108400       0.000000       0.000000
        18         1       0.000000       0.000000       0.000000       0.000000         1       1.071126      15.625628     220.000000         1       1.110000       0.950000     108.448300       0.107700       0.000000       0.000000
        19         1       0.000000       0.000000       0.000000       0.000000         1       1.075245      33.623868     220.000000         1       1.110000       0.950000      99.443100       0.357700       0.000000       0.000000
        20         1       0.000000       0.000000       0.000000       0.000000         1       1.075292      33.626857     220.000000         1       1.110000       0.950000      99.442900       0.357200       0.000000       0.000000
        21         1       0.000000       0.000000       0.000000       0.000000         1       1.055403      20.305005     220.000000         1       1.110000       0.950000     105.900100       0.584700       0.000000       0.000000
        22         1       0.000000       0.000000       0.000000       0.000000         1       1.055403      20.305005     220.000000         1       1.110000       0.950000     105.900100       0.584700       0.000000       0.000000
        23         1       0.000000       0.000000       0.000000       0.000000         1       1.038472      21.157161     220.000000         1       1.110000       0.950000     105.597100       1.040300       0.000000       0.000000
        24         1       0.000000       0.000000       0.000000       0.000000         1       1.077228      35.371990     220.000000         1       1.110000       0.950000      98.843300       0.274100       0.000000       0.000000
        25         1       0.000000       0.000000       0.000000       0.000000         1       1.012085      24.218814     400.000000         1       1.050000       0.950000     103.880000       0.370300       0.000000       0.000000
        26         2      61.358000      72.054000       0.000000       0.000000         1       1.090910      37.224812     220.000000         1       1.110000       0.950000      97.788200       0.000000    1044.880100       0.000000
        27         2      84.861000     122.060000       0.000000       0.000000         1       1.090910      38.969314     220.000000         1       1.110000       0.950000      97.451900       0.000000    1601.417400       0.000000
        28         3      49.000000      74.000000       0.000000       0.000000         1       1.026650      36.029099     400.000000         1       1.050000       0.950000      98.607300      -0.000800       0.000000       0.000000
        29         2      49.000000      74.000000       0.000000       0.000000         1       1.026650      36.035235     400.000000         1       1.050000       0.950000      98.604000      -0.000000       0.000000       0.000000
        30         1       0.000000       0.000000       0.000000       0.000000         1       1.045297      20.884311     220.000000         1       1.110000       0.950000     105.674900       0.835500       0.000000       0.000000
        31         1       0.000000       0.000000       0.000000       0.000000         1       1.026233      34.534909     400.000000         1       1.050000       0.950000      98.889200      -0.069300       0.000000       0.000000
        32         1       0.000000       0.000000       0.000000       0.000000         1       1.036011      20.842617     220.000000         1       1.110000       0.950000     105.819600       1.097100       0.000000       0.000000
        33         1       0.000000       0.000000       0.000000       0.000000         1       1.077457      30.248611     220.000000         1       1.110000       0.950000     100.863300       0.294800       0.000000       0.000000
        34         1       0.000000       0.000000       0.000000       0.000000         1       1.075334      26.823283     220.000000         2       1.110000       0.950000     101.912200      -0.320400       0.000000       0.000000
        35         1       0.000000       0.000000       0.000000       0.000000         1       1.077227      27.281510     220.000000         2       1.110000       0.950000     102.074400      -0.674300       0.000000       0.000000
        36         1       0.000000       0.000000       0.000000       0.000000         1       1.086131      28.240259     220.000000         2       1.110000       0.950000     101.387600      -0.865100       0.000000       0.000000
        37         1       0.000000       0.000000       0.000000       0.000000         1       1.086118      28.238350     220.000000         2       1.110000       0.950000     101.388600      -0.864900       0.000000       0.000000
        38         1       0.000000       0.000000       0.000000       0.000000         1       1.062878      25.587413     220.000000         2       1.110000       0.950000     102.761800      -0.442700       0.000000       0.000000
        39         1       0.000000       0.000000       0.000000       0.000000         1       1.103361      28.641115     220.000000         2       1.110000       0.950000     101.108200      -3.086500   18045.980300       0.000000
        40         1       0.000000       0.000000       0.000000       0.000000         1       1.103248      28.641578     220.000000         2       1.110000       0.950000     101.109800      -3.074400       0.000000       0.000000
        41         1       0.000000       0.000000       0.000000       0.000000         1       1.018478      28.840569     400.000000         2       1.050000       0.950000     101.134500      -2.095600       0.000000       0.000000
        42         2      25.000000       0.000000       0.000000       0.000000         1       1.090910      27.345663     220.000000         2       1.110000       0.950000     101.842700      -0.131600       0.000000       0.000000
        43         2      26.000000       0.000000       0.000000       0.000000         1       1.090910      27.363747     220.000000         2       1.110000       0.950000     101.836800      -0.132500       0.000000       0.000000
        44         2      25.000000       0.000000       0.000000       0.000000         1       1.018570      27.865093     400.000000         2       1.050000       0.950000     102.050000      -0.037800       0.000000       0.000000
        45         1       0.000000       0.000000       0.000000       0.000000         1       1.018551      27.861959     400.000000         2       1.050000       0.950000     102.049900      -0.037400       0.000000       0.000000
        46         1       0.000000       0.000000       0.000000       0.000000         1       1.099899      28.138645     220.000000         2       1.110000       0.950000     101.451000      -2.878000       0.000000       0.000000
        47         1       0.000000       0.000000       0.000000       0.000000         1       1.031994      25.473709     400.000000         2       1.050000       0.950000     102.230800      -0.835100       0.000000       0.000000
        48         1       0.000000       0.000000       0.000000       0.000000         1       1.031964      25.467865     400.000000         2       1.050000       0.950000     102.233600      -0.834200       0.000000       0.000000
        49         1       0.000000       0.000000       0.000000       0.000000         1       1.025954      27.336325     400.000000         2       1.050000       0.950000     102.068100      -0.156900       0.000000       0.000000
        50         1       0.000000       0.000000       0.000000       0.000000         1       1.071500      26.647604     220.000000         2       1.110000       0.950000     102.073100      -0.492500       0.000000       0.000000
        51         1       0.000000       0.000000       0.000000       0.000000         1       1.071479      26.650429     220.000000         2       1.110000       0.950000     102.073100      -0.492400       0.000000       0.000000
        52         1       0.000000       0.000000       0.000000       0.000000         1       1.032224      28.079338     400.000000         2       1.050000       0.950000     101.677300      -0.762900       0.000000       0.000000
        53         1       0.000000       0.000000       0.000000       0.000000         1       1.032254      28.081439     400.000000         2       1.050000       0.950000     101.675700      -0.764800       0.000000       0.000000
        54         2      13.000000       0.000000       0.000000       0.000000         1       1.091160      29.259414     220.000000         2       1.110000       0.950000     100.926600      -1.008600       0.000000       0.000000
        55         2      13.000000       0.000000       0.000000       0.000000         1       1.091140      29.255869     220.000000         2       1.110000       0.950000     100.925000      -1.010100       0.000000       0.000000
        56         2      13.000000       0.000000       0.000000       0.000000         1       1.040390      29.011033     400.000000         2       1.050000       0.950000     101.174100      -1.145800       0.000000       0.000000
        57         2      26.000000       0.000000       0.000000       0.000000         1       1.040360      29.007477     400.000000         2       1.050000       0.950000     101.175900      -1.146100       0.000000       0.000000
        58         2      89.067000      40.000000       0.000000       0.000000         1       1.087540      26.905956     220.000000         2       1.110000       0.950000     102.028100      -0.226200       0.000000       0.000000
        59         1       0.000000       0.000000       0.000000       0.000000         1       1.087521      26.907709     220.000000         2       1.110000       0.950000     102.026800      -0.226700       0.000000       0.000000
        60         1       0.000000       0.000000       0.000000       0.000000         1       1.096095      28.060348     220.000000         2       1.110000       0.950000     101.448600      -2.453400       0.000000       0.000000
        61         1       0.000000       0.000000       0.000000       0.000000         1       1.090496      26.920310     220.000000         2       1.110000       0.950000     102.167000      -0.698200       0.000000       0.000000
        62         1       0.000000       0.000000       0.000000       0.000000         1       1.090475      26.917348     220.000000         2       1.110000       0.950000     102.167400      -0.694100       0.000000       0.000000
        63         1       0.000000       0.000000       0.000000       0.000000         1       1.042897      27.929299     400.000000         2       1.050000       0.950000     101.416700      -1.074400       0.000000       0.000000
        64         1       0.000000       0.000000       0.000000       0.000000         1       1.042848      27.917615     400.000000         2       1.050000       0.950000     101.421100      -1.073000       0.000000       0.000000
        65         1       0.000000       0.000000       0.000000       0.000000         1       1.079412      27.155499     220.000000         2       1.110000       0.950000     101.867500      -0.656800       0.000000       0.000000
        66         1       0.000000       0.000000       0.000000       0.000000         1       1.080923      27.321583     220.000000         2       1.110000       0.950000     101.756800      -0.684200       0.000000       0.000000
        67         1       0.000000       0.000000       0.000000       0.000000         1       1.072145      27.369386     220.000000         2       1.110000       0.950000     101.722500      -0.465100       0.000000       0.000000
        68         1       0.000000       0.000000       0.000000       0.000000         1       1.086989      32.450353     220.000000         3       1.110000       0.950000      99.807700      -0.368800       0.000000       0.000000
        69         1      10.327000       0.000000       0.000000       0.000000         1       1.091896      28.977239     220.000000         3       1.110000       0.950000     101.253200      -0.536800       0.000000       0.000000
        70         1       8.032000       3.714000       0.000000       0.000000         1       1.091741      28.984187     220.000000         3       1.110000       0.950000     101.250600      -0.533000       0.000000       0.000000
        71         1       0.000000       0.000000       0.000000       0.000000         1       1.086192      32.168839     220.000000         3       1.110000       0.950000      99.596100       0.092900       0.000000       0.000000
        72         1       0.000000       0.000000       0.000000       0.000000         1       1.086250      32.180824     220.000000         3       1.110000       0.950000      99.592800       0.091700       0.000000       0.000000
        73         1       0.000000       0.000000       0.000000       0.000000         1       1.087122      31.856470     220.000000         3       1.110000       0.950000      99.710400       0.019200       0.000000       0.000000
        74         1       0.000000       0.000000       0.000000       0.000000         1       1.087100      31.851592     220.000000         3       1.110000       0.950000      99.711300       0.019300       0.000000       0.000000
        75         1       0.000000       0.000000       0.000000       0.000000         1       1.083849      30.571883     220.000000         3       1.110000       0.950000     100.683900       0.175200       0.000000       0.000000
        76         1       0.000000       0.000000       0.000000       0.000000         1       1.083728      30.564710     220.000000         3       1.110000       0.950000     100.688100       0.177400       0.000000       0.000000
        77         2      27.000000      70.000000       0.000000       0.000000         1       1.090910      32.984794     220.000000         3       1.110000       0.950000      99.218800       0.000000       0.000000       0.000000
        78         2      18.700000      42.000000       0.000000       0.000000         1       1.090910      33.009849     220.000000         3       1.110000       0.950000      99.286500       0.000000       0.000000       0.000000
        79         1       4.934000       0.817000       0.000000       0.000000         1       1.079849      31.679907     220.000000         3       1.110000       0.950000     100.082100       0.217000       0.000000       0.000000
        80         1       0.000000       0.000000       0.000000       0.000000         1       1.079863      31.681084     220.000000         3       1.110000       0.950000     100.081300       0.216800       0.000000       0.000000
        81         2      18.000000      57.000000       0.000000       0.000000         1       1.021680      31.985171     400.000000         3       1.050000       0.950000      99.431100      -0.046700       0.000000       0.000000
        82         1       0.000000       0.000000       0.000000       0.000000         1       1.082658      30.906436     220.000000         3       1.110000       0.950000      99.937700      -0.623700       0.000000       0.000000
        83         1       0.000000       0.000000       0.000000       0.000000         1       1.087492      31.367232     220.000000         3       1.110000       0.950000     100.080400       0.022300       0.000000       0.000000
        84         1       0.000000       0.000000       0.000000       0.000000         1       1.087497      31.372362     220.000000         3       1.110000       0.950000     100.078600       0.022200       0.000000       0.000000
        85         1      44.864000      -6.400000       0.000000       0.000000         1       1.088375      32.432599     220.000000         3       1.110000       0.950000      99.731100      -0.399100       0.000000       0.000000
        86         1       0.000000       0.000000       0.000000       0.000000         1       1.088359      32.427167     220.000000         3       1.110000       0.950000      99.733100      -0.398500       0.000000       0.000000
        87         1       0.000000       0.000000       0.000000       0.000000         1       1.083939      31.660955     220.000000         3       1.110000       0.950000      99.883700       0.101400       0.000000       0.000000
        88         1       0.000000       0.000000       0.000000       0.000000         1       1.083916      31.666743     220.000000         3       1.110000       0.950000      99.881900       0.102200       0.000000       0.000000
        89         1       0.000000       0.000000       0.000000       0.000000         1       1.089259      32.903069     220.000000         3       1.110000       0.950000      99.500000      -0.413900       0.000000       0.000000
        90         1       0.000000       0.000000       0.000000       0.000000         1       1.089261      32.898473     220.000000         3       1.110000       0.950000      99.502200      -0.416100       0.000000       0.000000
        91         1       0.000000       0.000000       0.000000       0.000000         1       1.031559      34.116662     400.000000         3       1.050000       0.950000      99.214700      -0.251800       0.000000       0.000000
        92         1       0.000000       0.000000       0.000000       0.000000         1       1.031557      34.114838     400.000000         3       1.050000       0.950000      99.215000      -0.251800       0.000000       0.000000
        93         1       0.000000       0.000000       0.000000       0.000000         1       1.084892      31.245133     220.000000         3       1.110000       0.950000     100.066500       0.063700       0.000000       0.000000
        94         1       0.000000       0.000000       0.000000       0.000000         1       1.084893      31.240564     220.000000         3       1.110000       0.950000     100.068200       0.064000       0.000000       0.000000
        95         1       0.000000       0.000000       0.000000       0.000000         1       1.084719      31.448027     220.000000         3       1.110000       0.950000     100.003200      -0.186300       0.000000       0.000000
        96         1       0.000000       0.000000       0.000000       0.000000         1       1.084718      31.445297     220.000000         3       1.110000       0.950000     100.002700      -0.188800       0.000000       0.000000
        97         2      12.490000       3.696000       0.000000       0.000000         1       1.089550      32.246705     220.000000         3       1.110000       0.950000      99.656000      -0.241300       0.000000       0.000000
        98         1      17.327000       6.126000       0.000000       0.000000         1       1.089538      32.240020     220.000000         3       1.110000       0.950000      99.658400      -0.243400       0.000000       0.000000
        99         1       0.000000       0.000000       0.000000       0.000000         1       1.091945      29.001772     220.000000         3       1.110000       0.950000     101.240300      -0.537200       0.000000       0.000000
       100         1       0.000000       0.000000       0.000000       0.000000         1       1.091951      29.001599     220.000000         3       1.110000       0.950000     101.240000      -0.536200       0.000000       0.000000
       101         1       0.000000       0.000000       0.000000       0.000000         1       1.076684      30.191369     220.000000         3       1.110000       0.950000     100.984000       0.340000       0.000000       0.000000
       102         1       0.000000       0.000000       0.000000       0.000000         1       1.076650      30.191732     220.000000         3       1.110000       0.950000     100.983300       0.340500       0.000000       0.000000
       103         2      14.000000      40.000000       0.000000       0.000000         1       1.089050      31.343063     220.000000         3       1.110000       0.950000     100.108300       0.000000       0.000000       0.000000
       104         2       0.000000       0.000000       0.000000       0.000000         1       1.088987      31.315423     220.000000         3       1.110000       0.950000     100.117400       0.001300       0.000000       0.000000
       105         2       7.000000      18.000000       0.000000       0.000000         1       1.087500      31.730838     220.000000         3       1.110000       0.950000      99.809400       0.000000       0.000000       0.000000
       106         2       0.000000       0.000000       0.000000       0.000000         1       1.087402      31.728614     220.000000         3       1.110000       0.950000      99.811600       0.000000       0.000000       0.000000
       107         1       0.000000      13.892000       0.000000       0.000000         1       1.089083      31.683183     220.000000         3       1.110000       0.950000      99.919000      -0.504300       0.000000       0.000000
       108         1      73.779000       8.097000       0.000000       0.000000         1       1.089113      31.673251     220.000000         3       1.110000       0.950000      99.921400      -0.507800       0.000000       0.000000
       109         1       0.000000       0.000000       0.000000       0.000000         1       1.082786      30.931819     220.000000         3       1.110000       0.950000     100.624500       0.031500       0.000000       0.000000
       110         1       0.000000       0.000000       0.000000       0.000000         1       1.075939      31.565719     220.000000         3       1.110000       0.950000     100.238900       0.341500       0.000000       0.000000
       111         1       0.000000       0.000000       0.000000       0.000000         1       1.075964      31.566330     220.000000         3       1.110000       0.950000     100.238300       0.341100       0.000000       0.000000
       112         1       0.000000       0.000000       0.000000       0.000000         1       1.080702      31.763564     220.000000         3       1.110000       0.950000     100.015100       0.199300       0.000000       0.000000
       113         1       0.000000       0.000000       0.000000       0.000000         1       1.080769      31.772815     220.000000         3       1.110000       0.950000     100.011300       0.198200       0.000000       0.000000
       114         1       0.000000       0.000000       0.000000       0.000000         1       1.030590      31.090556     400.000000         3       1.050000       0.950000     100.033500      -0.655200       0.000000       0.000000
       115         2       0.000000       0.000000       0.000000       0.000000         1       1.089933      32.641239     220.000000         3       1.110000       0.950000      99.396100      -0.049200       0.000000       0.000000
       116         2       8.000000      15.000000       0.000000       0.000000         1       1.089920      32.643963     220.000000         3       1.110000       0.950000      99.396900      -0.049800       0.000000       0.000000
       117         2       5.500000      10.000000       0.000000       0.000000         1       1.087880      31.750916     220.000000         3       1.110000       0.950000     100.054900      -0.050500       0.000000       0.000000
       118         1       0.000000       0.000000       0.000000       0.000000         1       1.087902      31.741791     220.000000         3       1.110000       0.950000     100.056900      -0.051500       0.000000       0.000000
       119         1       0.000000       0.000000       0.000000       0.000000         1       1.043630      28.763133     400.000000         3       1.050000       0.950000     101.159100      -1.108700       0.000000       0.000000
       120         1       0.000000       0.000000       0.000000       0.000000         1       1.043660      28.768042     400.000000         3       1.050000       0.950000     101.156900      -1.109700       0.000000       0.000000
       121         1       0.000000       0.000000       0.000000       0.000000         1       1.039138      31.255766     400.000000         3       1.050000       0.950000      99.975200      -1.132600       0.000000       0.000000
       122         1       0.000000       0.000000       0.000000       0.000000         1       1.039151      31.261116     400.000000         3       1.050000       0.950000      99.973400      -1.135300    8588.884700       0.000000
       123         1       0.000000       0.000000       0.000000       0.000000         1       1.082034      30.865618     220.000000         3       1.110000       0.950000     100.742900       0.043700       0.000000       0.000000
       124         2      11.000000      17.500000       0.000000       0.000000         1       1.090930      32.806802     220.000000         3       1.110000       0.950000      99.379300      -0.003900       0.000000       0.000000
       125         2      41.353000      61.200000       0.000000       0.000000         1       1.090910      32.824012     220.000000         3       1.110000       0.950000      99.373800       0.000000       0.000000       0.000000
       126         2      14.000000      33.000000       0.000000       0.000000         1       1.025110      31.501863     400.000000         3       1.050000       0.950000      99.788100      -0.292500       0.000000       0.000000