# Imported from MATPOWER Case Format
mpc.version
2
mpc.version.end

# System MVA base
mpc.baseMVA
100
mpc.baseMVA.end

# Bus data: bus_i	type	Pd	Qd	Gs	Bs	area	Vm	Va	baseKV	zone	Vmax	Vmin
mpc.bus
         1         3       0.000000       0.000000       0.000000       0.000000         1       1.060000       0.000000     132.000000         1       1.060000       0.940000
         2         2      21.700000      12.700000       0.000000       0.000000         1       1.045000      -5.378243     132.000000         1       1.060000       0.940000
         3         1       2.400000       1.200000       0.000000       0.000000         1       1.021178      -7.528660     132.000000         1       1.060000       0.940000
         4         1       7.600000       1.600000       0.000000       0.000000         1       1.012300      -9.279432     132.000000         1       1.060000       0.940000
         5         2      94.200000      19.000000       0.000000       0.000000         1       1.010000     -14.148767     132.000000         1       1.060000       0.940000
         6         1       0.000000       0.000000       0.000000       0.000000         1       1.010626     -11.055023     132.000000         1       1.060000       0.940000
         7         1      22.800000      10.900000       0.000000       0.000000         1       1.002597     -12.852319     132.000000         1       1.060000       0.940000
         8         2      30.000000      30.000000       0.000000       0.000000         1       1.010000     -11.797385     132.000000         1       1.060000       0.940000
         9         1       0.000000       0.000000       0.000000       0.000000         1       1.051132     -14.097969       1.000000         1       1.060000       0.940000
        10         1       5.800000       2.000000       0.000000      19.000000         1       1.045379     -15.688173      33.000000         1       1.060000       0.940000
        11         2       0.000000       0.000000       0.000000       0.000000         1       1.082000     -14.097969      11.000000         1       1.060000       0.940000
        12         1      11.200000       7.500000       0.000000       0.000000         1       1.057339     -14.932908      33.000000         1       1.060000       0.940000
        13         2       0.000000       0.000000       0.000000       0.000000         1       1.071000     -14.932908      11.000000         1       1.060000       0.940000
        14         1       6.200000       1.600000       0.000000       0.000000         1       1.042508     -15.824522      33.000000         1       1.060000       0.940000
        15         1       8.200000       2.500000       0.000000       0.000000         1       1.037916     -15.916363      33.000000         1       1.060000       0.940000
        16         1       3.500000       1.800000       0.000000       0.000000         1       1.044626     -15.515424      33.000000         1       1.060000       0.940000
        17         1       9.000000       5.800000       0.000000       0.000000         1       1.040150     -15.849948      33.000000         1       1.060000       0.940000
        18         1       3.200000       0.900000       0.000000       0.000000         1       1.028396     -16.530189      33.000000         1       1.060000       0.940000
        19         1       9.500000       3.400000       0.000000       0.000000         1       1.025900     -16.703722      33.000000         1       1.060000       0.940000
        20         1       2.200000       0.700000       0.000000       0.000000         1       1.029987     -16.507192      33.000000         1       1.060000       0.940000
        21         1      17.500000      11.200000       0.000000       0.000000         1       1.032982     -16.130667      33.000000         1       1.060000       0.940000
        22         1       0.000000       0.000000       0.000000       0.000000         1       1.033514     -16.116437      33.000000         1       1.060000       0.940000
        23         1       3.200000       1.600000       0.000000       0.000000         1       1.027429     -16.306626      33.000000         1       1.060000       0.940000
        24         1       8.700000       6.700000       0.000000       4.300000         1       1.021846     -16.482787      33.000000         1       1.060000       0.940000
        25         1       0.000000       0.000000       0.000000       0.000000         1       1.017619     -16.054559      33.000000         1       1.060000       0.940000
        26         1       3.500000       2.300000       0.000000       0.000000         1       0.999946     -16.473981      33.000000         1       1.060000       0.940000
        27         1       0.000000       0.000000       0.000000       0.000000         1       1.023539     -15.530080      33.000000         1       1.060000       0.940000
        28         1       0.000000       0.000000       0.000000       0.000000         1       1.007101     -11.677297     132.000000         1       1.060000       0.940000
        29         1       2.400000       0.900000       0.000000       0.000000         1       1.003706     -16.759313      33.000000         1       1.060000       0.940000
        30         1      10.600000       1.900000       0.000000       0.000000         1       0.992235     -17.641613      33.000000         1       1.060000       0.940000
mpc.bus.end

# generator data: bus	Pg	Qg	Qmax	Qmin	Vg	mBase	status	Pmax	Pmin	Pc1	Pc2	Qc1min	Qc1max	Qc2min	Qc2max	ramp_agc	ramp_10	ramp_30	ramp_q	apf
mpc.gen
         1     260.956948     -20.417883      10.000000       0.000000       1.060000     100.000000         1     360.200000       0.000000       0.000000       0.000000       0.000000       0.000000       0.000000       0.000000       0.000000       0.000000       0.000000       0.000000       0.000000
         2      40.000000      56.069462      50.000000     -40.000000       1.045000     100.000000         1     140.000000       0.000000       0.000000       0.000000       0.000000       0.000000       0.000000       0.000000       0.000000       0.000000       0.000000       0.000000       0.000000
         5       0.000000      35.658791      40.000000     -40.000000       1.010000     100.000000         1     100.000000       0.000000       0.000000       0.000000       0.000000       0.000000       0.000000       0.000000       0.000000       0.000000       0.000000       0.000000       0.000000
         8       0.000000      36.111266      40.000000     -10.000000       1.010000     100.000000         1     100.000000       0.000000       0.000000       0.000000       0.000000       0.000000       0.000000       0.000000       0.000000       0.000000       0.000000       0.000000       0.000000
        11       0.000000      16.057446      24.000000      -6.000000       1.082000     100.000000         1     100.000000       0.000000       0.000000       0.000000       0.000000       0.000000       0.000000       0.000000       0.000000       0.000000       0.000000       0.000000       0.000000
        13       0.000000      10.450719      24.000000      -6.000000       1.071000     100.000000         1     100.000000       0.000000       0.000000       0.000000       0.000000       0.000000       0.000000       0.000000       0.000000       0.000000       0.000000       0.000000       0.000000
mpc.gen.end

# branch data: fbus	tbus	r	x	b	rateA	rateB	rateC	ratio	angle	status	angmin	angmax PF* QF* PT* QT*
mpc.branch
         1         2       0.019200       0.057500       0.052800       0.000000       0.000000       0.000000       0.000000       0.000000         1    -360.000000     360.000000     173.307146     -24.702766    -168.093987      34.465841
         1         3       0.045200       0.165200       0.040800       0.000000       0.000000       0.000000       0.000000       0.000000         1    -360.000000     360.000000      87.649801       4.284882     -84.541901       2.654617
         2         4       0.057000       0.173700       0.036800       0.000000       0.000000       0.000000       0.000000       0.000000         1    -360.000000     360.000000      43.652691       4.749572     -42.634210      -5.540754
         3         4       0.013200       0.037900       0.008400       0.000000       0.000000       0.000000       0.000000       0.000000         1    -360.000000     360.000000      82.141901      -3.854617     -81.286339       5.442743
         2         5       0.047200       0.198300       0.041800       0.000000       0.000000       0.000000       0.000000       0.000000         1    -360.000000     360.000000      82.361318       2.781653     -79.418288       5.168474
         2         6       0.058100       0.176300       0.037400       0.000000       0.000000       0.000000       0.000000       0.000000         1    -360.000000     360.000000      60.379978       1.372397     -58.434098       0.580189
         4         6       0.011900       0.041400       0.009000       0.000000       0.000000       0.000000       0.000000       0.000000         1    -360.000000     360.000000      72.127325     -15.911988     -71.495476      17.189433
         5         7       0.046000       0.116000       0.020400       0.000000       0.000000       0.000000       0.000000       0.000000         1    -360.000000     360.000000     -14.781712      11.490317      14.951048     -13.129104
         6         7       0.026700       0.082000       0.017000       0.000000       0.000000       0.000000       0.000000       0.000000         1    -360.000000     360.000000      38.132117      -2.781358     -37.751048       2.229104
         6         8       0.012000       0.042000       0.009000       0.000000       0.000000       0.000000       0.000000       0.000000         1    -360.000000     360.000000      29.563056      -7.196499     -29.455041       6.655895
         6         9       0.000000       0.208000       0.000000       0.000000       0.000000       0.000000       0.978000       0.000000         1    -360.000000     360.000000      27.721243      -8.092986     -27.721243       9.717440
         6        10       0.000000       0.556000       0.000000       0.000000       0.000000       0.000000       0.969000       0.000000         1    -360.000000     360.000000      15.839660       0.186541     -15.839660       1.096066
         9        11       0.000000       0.208000       0.000000       0.000000       0.000000       0.000000       0.000000       0.000000         1    -360.000000     360.000000      -0.000000     -15.599344       0.000000      16.057446
         9        10       0.000000       0.110000       0.000000       0.000000       0.000000       0.000000       0.000000       0.000000         1    -360.000000     360.000000      27.721243       5.881905     -27.721243      -5.082386
         4        12       0.000000       0.256000       0.000000       0.000000       0.000000       0.000000       0.932000       0.000000         1    -360.000000     360.000000      44.193224      14.410000     -44.193224      -9.721378
        12        13       0.000000       0.140000       0.000000       0.000000       0.000000       0.000000       0.000000       0.000000         1    -360.000000     360.000000      -0.000000     -10.317415       0.000000      10.450719
        12        14       0.123100       0.255900       0.000000       0.000000       0.000000       0.000000       0.000000       0.000000         1    -360.000000     360.000000       7.857520       2.400305      -7.783193      -2.245795
        12        15       0.066200       0.130400       0.000000       0.000000       0.000000       0.000000       0.000000       0.000000         1    -360.000000     360.000000      17.891766       6.789920     -17.674911      -6.362761
        12        16       0.094500       0.198700       0.000000       0.000000       0.000000       0.000000       0.000000       0.000000         1    -360.000000     360.000000       7.243938       3.348567      -7.190104      -3.235373
        14        15       0.221000       0.199700       0.000000       0.000000       0.000000       0.000000       0.000000       0.000000         1    -360.000000     360.000000       1.583193       0.645795      -1.577248      -0.640423
        16        17       0.052400       0.192300       0.000000       0.000000       0.000000       0.000000       0.000000       0.000000         1    -360.000000     360.000000       3.690104       1.435373      -3.682576      -1.407747
        15        18       0.107300       0.218500       0.000000       0.000000       0.000000       0.000000       0.000000       0.000000         1    -360.000000     360.000000       6.016829       1.595301      -5.978235      -1.516711
        18        19       0.063900       0.129200       0.000000       0.000000       0.000000       0.000000       0.000000       0.000000         1    -360.000000     360.000000       2.778235       0.616711      -2.773342      -0.606817
        19        20       0.034000       0.068000       0.000000       0.000000       0.000000       0.000000       0.000000       0.000000         1    -360.000000     360.000000      -6.726658      -2.793183       6.743796       2.827459
        10        20       0.093600       0.209000       0.000000       0.000000       0.000000       0.000000       0.000000       0.000000         1    -360.000000     360.000000       9.025350       3.709561      -8.943796      -3.527459
        10        17       0.032400       0.084500       0.000000       0.000000       0.000000       0.000000       0.000000       0.000000         1    -360.000000     360.000000       5.331669       4.429404      -5.317424      -4.392253
        10        21       0.034800       0.074900       0.000000       0.000000       0.000000       0.000000       0.000000       0.000000         1    -360.000000     360.000000      15.785589      10.010855     -15.674324      -9.771380
        10        22       0.072700       0.149900       0.000000       0.000000       0.000000       0.000000       0.000000       0.000000         1    -360.000000     360.000000       7.618295       4.600026      -7.565608      -4.491390
        21        22       0.011600       0.023600       0.000000       0.000000       0.000000       0.000000       0.000000       0.000000         1    -360.000000     360.000000      -1.825676      -1.428620       1.826260       1.429809
        15        23       0.100000       0.202000       0.000000       0.000000       0.000000       0.000000       0.000000       0.000000         1    -360.000000     360.000000       5.035330       2.907883      -5.003945      -2.844485
        22        24       0.115000       0.179000       0.000000       0.000000       0.000000       0.000000       0.000000       0.000000         1    -360.000000     360.000000       5.739348       3.061582      -5.693792      -2.990673
        23        24       0.132000       0.270000       0.000000       0.000000       0.000000       0.000000       0.000000       0.000000         1    -360.000000     360.000000       1.803945       1.244485      -1.797939      -1.232200
        24        25       0.188500       0.329200       0.000000       0.000000       0.000000       0.000000       0.000000       0.000000         1    -360.000000     360.000000      -1.208270       2.012799       1.218219      -1.995423
        25        26       0.254400       0.380000       0.000000       0.000000       0.000000       0.000000       0.000000       0.000000         1    -360.000000     360.000000       3.544627       2.366659      -3.500000      -2.300000
        25        27       0.109300       0.208700       0.000000       0.000000       0.000000       0.000000       0.000000       0.000000         1    -360.000000     360.000000      -4.762845      -0.371236       4.786934       0.417231
        28        27       0.000000       0.396000       0.000000       0.000000       0.000000       0.000000       0.968000       0.000000         1    -360.000000     360.000000      18.068883       5.036015     -18.068883      -3.748796
        27        29       0.219800       0.415300       0.000000       0.000000       0.000000       0.000000       0.000000       0.000000         1    -360.000000     360.000000       6.189946       1.668789      -6.103715      -1.505860
        27        30       0.320200       0.602700       0.000000       0.000000       0.000000       0.000000       0.000000       0.000000         1    -360.000000     360.000000       7.092003       1.662776      -6.929825      -1.357515
        29        30       0.239900       0.453300       0.000000       0.000000       0.000000       0.000000       0.000000       0.000000         1    -360.000000     360.000000       3.703715       0.605860      -3.670175      -0.542485
         8        28       0.063600       0.200000       0.042800       0.000000       0.000000       0.000000       0.000000       0.000000         1    -360.000000     360.000000      -0.544959      -0.544628       0.546818      -3.803041
         6        28       0.016900       0.059900       0.013000       0.000000       0.000000       0.000000       0.000000       0.000000         1    -360.000000     360.000000      18.673499       0.114680     -18.615701      -1.232973
mpc.branch.end

