# Imported from MATPOWER Case Format
mpc.version
2
mpc.version.end

# System MVA base
mpc.baseMVA
100
mpc.baseMVA.end

# Bus data: bus_i	type	Pd	Qd	Gs	Bs	area	Vm	Va	baseKV	zone	Vmax	Vmin
mpc.bus
         1         3      55.000000      17.000000       0.000000       0.000000         1       1.040000       0.000000       0.000000         1       1.060000       0.940000
         2         2       3.000000      88.000000       0.000000       0.000000         1       1.010000      -1.188163       0.000000         1       1.060000       0.940000
         3         2      41.000000      21.000000       0.000000       0.000000         1       0.985000      -5.988127       0.000000         1       1.060000       0.940000
         4         1       0.000000       0.000000       0.000000       0.000000         1       0.980780      -7.337365       0.000000         1       1.060000       0.940000
         5         1      13.000000       4.000000       0.000000       0.000000         1       0.976499      -8.546410       0.000000         1       1.060000       0.940000
         6         2      75.000000       2.000000       0.000000       0.000000         1       0.980000      -8.674120       0.000000         1       1.060000       0.940000
         7         1       0.000000       0.000000       0.000000       0.000000         1       0.984202      -7.601398       0.000000         1       1.060000       0.940000
         8         2     150.000000      22.000000       0.000000       0.000000         1       1.005000      -4.477912       0.000000         1       1.060000       0.940000
         9         2     121.000000      26.000000       0.000000       0.000000         1       0.980000      -9.584672       0.000000         1       1.060000       0.940000
        10         1       5.000000       2.000000       0.000000       0.000000         1       0.986242     -11.449658       0.000000         1       1.060000       0.940000
        11         1       0.000000       0.000000       0.000000       0.000000         1       0.973962     -10.193249       0.000000         1       1.060000       0.940000
        12         2     377.000000      24.000000       0.000000       0.000000         1       1.015000     -10.471211       0.000000         1       1.060000       0.940000
        13         1      18.000000       2.300000       0.000000       0.000000         1       0.978887      -9.803518       0.000000         1       1.060000       0.940000
        14         1      10.500000       5.300000       0.000000       0.000000         1       0.970177      -9.350306       0.000000         1       1.060000       0.940000
        15         1      22.000000       5.000000       0.000000       0.000000         1       0.988032      -7.190170       0.000000         1       1.060000       0.940000
        16         1      43.000000       3.000000       0.000000       0.000000         1       1.013369      -8.858935       0.000000         1       1.060000       0.940000
        17         1      42.000000       8.000000       0.000000       0.000000         1       1.017454      -5.395893       0.000000         1       1.060000       0.940000
        18         1      27.200000       9.800000       0.000000      10.000000         1       1.000659     -11.729639       0.000000         1       1.060000       0.940000
        19         1       3.300000       0.600000       0.000000       0.000000         1       0.970158     -13.226506       0.000000         1       1.060000       0.940000
        20         1       2.300000       1.000000       0.000000       0.000000         1       0.963790     -13.444309       0.000000         1       1.060000       0.940000
        21         1       0.000000       0.000000       0.000000       0.000000         1       1.008498     -12.929005       0.000000         1       1.060000       0.940000
        22         1       0.000000       0.000000       0.000000       0.000000         1       1.009744     -12.874309       0.000000         1       1.060000       0.940000
        23         1       6.300000       2.100000       0.000000       0.000000         1       1.008330     -12.939557       0.000000         1       1.060000       0.940000
        24         1       0.000000       0.000000       0.000000       0.000000         1       0.999233     -13.292120       0.000000         1       1.060000       0.940000
        25         1       6.300000       3.200000       0.000000       5.900000         1       0.982521     -18.173226       0.000000         1       1.060000       0.940000
        26         1       0.000000       0.000000       0.000000       0.000000         1       0.958818     -12.981257       0.000000         1       1.060000       0.940000
        27         1       9.300000       0.500000       0.000000       0.000000         1       0.981541     -11.513620       0.000000         1       1.060000       0.940000
        28         1       4.600000       2.300000       0.000000       0.000000         1       0.996678     -10.481608       0.000000         1       1.060000       0.940000
        29         1      17.000000       2.600000       0.000000       0.000000         1       1.010220      -9.771778       0.000000         1       1.060000       0.940000
        30         1       3.600000       1.800000       0.000000       0.000000         1       0.962661     -18.719645       0.000000         1       1.060000       0.940000
        31         1       5.800000       2.900000       0.000000       0.000000         1       0.935932     -19.383805       0.000000         1       1.060000       0.940000
        32         1       1.600000       0.800000       0.000000       0.000000         1       0.949875     -18.512336       0.000000         1       1.060000       0.940000
        33         1       3.800000       1.900000       0.000000       0.000000         1       0.947581     -18.552007       0.000000         1       1.060000       0.940000
        34         1       0.000000       0.000000       0.000000       0.000000         1       0.959200     -14.148964       0.000000         1       1.060000       0.940000
        35         1       6.000000       3.000000       0.000000       0.000000         1       0.966212     -13.906192       0.000000         1       1.060000       0.940000
        36         1       0.000000       0.000000       0.000000       0.000000         1       0.975828     -13.634816       0.000000         1       1.060000       0.940000
        37         1       0.000000       0.000000       0.000000       0.000000         1       0.984886     -13.445920       0.000000         1       1.060000       0.940000
        38         1      14.000000       7.000000       0.000000       0.000000         1       1.012812     -12.734623       0.000000         1       1.060000       0.940000
        39         1       0.000000       0.000000       0.000000       0.000000         1       0.982823     -13.491032       0.000000         1       1.060000       0.940000
        40         1       0.000000       0.000000       0.000000       0.000000         1       0.972811     -13.658239       0.000000         1       1.060000       0.940000
        41         1       6.300000       3.000000       0.000000       0.000000         1       0.996217     -14.076680       0.000000         1       1.060000       0.940000
        42         1       7.100000       4.400000       0.000000       0.000000         1       0.966526     -15.532790       0.000000         1       1.060000       0.940000
        43         1       2.000000       1.000000       0.000000       0.000000         1       1.009564     -11.354390       0.000000         1       1.060000       0.940000
        44         1      12.000000       1.800000       0.000000       0.000000         1       1.016799     -11.856464       0.000000         1       1.060000       0.940000
        45         1       0.000000       0.000000       0.000000       0.000000         1       1.036005      -9.270095       0.000000         1       1.060000       0.940000
        46         1       0.000000       0.000000       0.000000       0.000000         1       1.059797     -11.116070       0.000000         1       1.060000       0.940000
        47         1      29.700000      11.600000       0.000000       0.000000         1       1.033251     -12.511590       0.000000         1       1.060000       0.940000
        48         1       0.000000       0.000000       0.000000       0.000000         1       1.027351     -12.610657       0.000000         1       1.060000       0.940000
        49         1      18.000000       8.500000       0.000000       0.000000         1       1.036246     -12.936082       0.000000         1       1.060000       0.940000
        50         1      21.000000      10.500000       0.000000       0.000000         1       1.023336     -13.412712       0.000000         1       1.060000       0.940000
        51         1      18.000000       5.300000       0.000000       0.000000         1       1.052262     -12.533398       0.000000         1       1.060000       0.940000
        52         1       4.900000       2.200000       0.000000       0.000000         1       0.980368     -11.497560       0.000000         1       1.060000       0.940000
        53         1      20.000000      10.000000       0.000000       6.300000         1       0.970946     -12.252591       0.000000         1       1.060000       0.940000
        54         1       4.100000       1.400000       0.000000       0.000000         1       0.996319     -11.709656       0.000000         1       1.060000       0.940000
        55         1       6.800000       3.400000       0.000000       0.000000         1       1.030786     -10.801127       0.000000         1       1.060000       0.940000
        56         1       7.600000       2.200000       0.000000       0.000000         1       0.968369     -16.065069       0.000000         1       1.060000       0.940000
        57         1       6.700000       2.000000       0.000000       0.000000         1       0.964826     -16.583697       0.000000         1       1.060000       0.940000
mpc.bus.end

# generator data: bus	Pg	Qg	Qmax	Qmin	Vg	mBase	status	Pmax	Pmin	Pc1	Pc2	Qc1min	Qc1max	Qc2min	Qc2max	ramp_agc	ramp_10	ramp_30	ramp_q	apf
mpc.gen
         1     478.663752     128.849628     200.000000    -140.000000       1.040000     100.000000         1     575.880000       0.000000       0.000000       0.000000       0.000000       0.000000       0.000000       0.000000       0.000000       0.000000       0.000000       0.000000       0.000000
         2       0.000000      -0.754984      50.000000     -17.000000       1.010000     100.000000         1     100.000000       0.000000       0.000000       0.000000       0.000000       0.000000       0.000000       0.000000       0.000000       0.000000       0.000000       0.000000       0.000000
         3      40.000000      -0.904901      60.000000     -10.000000       0.985000     100.000000         1     140.000000       0.000000       0.000000       0.000000       0.000000       0.000000       0.000000       0.000000       0.000000       0.000000       0.000000       0.000000       0.000000
         6       0.000000       0.871401      25.000000      -8.000000       0.980000     100.000000         1     100.000000       0.000000       0.000000       0.000000       0.000000       0.000000       0.000000       0.000000       0.000000       0.000000       0.000000       0.000000       0.000000
         8     450.000000      62.099601     200.000000    -140.000000       1.005000     100.000000         1     550.000000       0.000000       0.000000       0.000000       0.000000       0.000000       0.000000       0.000000       0.000000       0.000000       0.000000       0.000000       0.000000
         9       0.000000       2.288375       9.000000      -3.000000       0.980000     100.000000         1     100.000000       0.000000       0.000000       0.000000       0.000000       0.000000       0.000000       0.000000       0.000000       0.000000       0.000000       0.000000       0.000000
        12     310.000000     128.630884     155.000000    -150.000000       1.015000     100.000000         1     410.000000       0.000000       0.000000       0.000000       0.000000       0.000000       0.000000       0.000000       0.000000       0.000000       0.000000       0.000000       0.000000
mpc.gen.end

# branch data: fbus	tbus	r	x	b	rateA	rateB	rateC	ratio	angle	status	angmin	angmax PF* QF* PT* QT*
mpc.branch
         1         2       0.008300       0.028000       0.129000       0.000000       0.000000       0.000000       0.000000       0.000000         1    -360.000000     360.000000     102.088344      74.996949    -100.772926     -84.115357
         2         3       0.029800       0.085000       0.081800       0.000000       0.000000       0.000000       0.000000       0.000000         1    -360.000000     360.000000      97.772926      -4.639627     -94.980249       4.464886
         3         4       0.011200       0.036600       0.038000       0.000000       0.000000       0.000000       0.000000       0.000000         1    -360.000000     360.000000      60.212802      -8.179270     -59.789641       5.891007
         4         5       0.062500       0.132000       0.025800       0.000000       0.000000       0.000000       0.000000       0.000000         1    -360.000000     360.000000      13.798443      -4.431900     -13.668120       2.236177
         4         6       0.043000       0.148000       0.034800       0.000000       0.000000       0.000000       0.000000       0.000000         1    -360.000000     360.000000      14.156869      -5.093506     -14.062051       2.075003
         6         7       0.020000       0.102000       0.027600       0.000000       0.000000       0.000000       0.000000       0.000000         1    -360.000000     360.000000     -17.778616      -1.710507      17.844469      -0.615734
         6         8       0.033900       0.173000       0.047000       0.000000       0.000000       0.000000       0.000000       0.000000         1    -360.000000     360.000000     -42.501447      -6.564344      43.145606       5.221146
         8         9       0.009900       0.050500       0.054800       0.000000       0.000000       0.000000       0.000000       0.000000         1    -360.000000     360.000000     178.028667      19.825904    -174.872050      -9.122934
         9        10       0.036900       0.167900       0.044000       0.000000       0.000000       0.000000       0.000000       0.000000         1    -360.000000     360.000000      17.171130      -9.225066     -17.038410       5.576197
         9        11       0.025800       0.084800       0.021800       0.000000       0.000000       0.000000       0.000000       0.000000         1    -360.000000     360.000000      12.903035       2.068500     -12.855703      -3.993740
         9        12       0.064800       0.295000       0.077200       0.000000       0.000000       0.000000       0.000000       0.000000         1    -360.000000     360.000000       2.548941     -15.853803      -2.445009       8.643140
         9        13       0.048100       0.158000       0.040600       0.000000       0.000000       0.000000       0.000000       0.000000         1    -360.000000     360.000000       2.315890      -1.960126      -2.313204      -1.925850
        13        14       0.013200       0.043400       0.011000       0.000000       0.000000       0.000000       0.000000       0.000000         1    -360.000000     360.000000     -10.354689      22.337479      10.441476     -23.096840
        13        15       0.026900       0.086900       0.023000       0.000000       0.000000       0.000000       0.000000       0.000000         1    -360.000000     360.000000     -48.892006       4.889637      49.573146      -4.913817
         1        15       0.017800       0.091000       0.098800       0.000000       0.000000       0.000000       0.000000       0.000000         1    -360.000000     360.000000     148.985423      33.786782    -145.080515     -23.989049
         1        16       0.045400       0.206000       0.054600       0.000000       0.000000       0.000000       0.000000       0.000000         1    -360.000000     360.000000      79.247175      -0.869780     -76.609285       7.082812
         1        17       0.023800       0.108000       0.028600       0.000000       0.000000       0.000000       0.000000       0.000000         1    -360.000000     360.000000      93.342809       3.935677     -91.418975       1.767283
         3        15       0.016200       0.053000       0.054400       0.000000       0.000000       0.000000       0.000000       0.000000         1    -360.000000     360.000000      33.767447     -18.190517     -33.536677      13.651211
         4        18       0.000000       0.555000       0.000000       0.000000       0.000000       0.000000       0.970000       0.000000         1    -360.000000     360.000000      13.961569       2.439904     -13.961569      -1.349400
         4        18       0.000000       0.430000       0.000000       0.000000       0.000000       0.000000       0.978000       0.000000         1    -360.000000     360.000000      17.872760       1.194495     -17.872760       0.177404
         5         6       0.030200       0.064100       0.012400       0.000000       0.000000       0.000000       0.000000       0.000000         1    -360.000000     360.000000       0.668120      -6.236177      -0.657886       5.071249
         7         8       0.013900       0.071200       0.019400       0.000000       0.000000       0.000000       0.000000       0.000000         1    -360.000000     360.000000     -77.935251     -12.410579      78.825727      15.052551
        10        12       0.027700       0.126200       0.032800       0.000000       0.000000       0.000000       0.000000       0.000000         1    -360.000000     360.000000     -17.604528     -20.089563      17.790195      17.650700
        11        13       0.022300       0.073200       0.018800       0.000000       0.000000       0.000000       0.000000       0.000000         1    -360.000000     360.000000      -9.925389      -4.390948       9.951426       2.684002
        12        13       0.017800       0.058000       0.060400       0.000000       0.000000       0.000000       0.000000       0.000000         1    -360.000000     360.000000      -0.486080      60.351237       1.181982     -64.088797
        12        16       0.018000       0.081300       0.021600       0.000000       0.000000       0.000000       0.000000       0.000000         1    -360.000000     360.000000     -33.397174       8.819135      33.609285     -10.082812
        12        17       0.039700       0.179000       0.047600       0.000000       0.000000       0.000000       0.000000       0.000000         1    -360.000000     360.000000     -48.461932       9.166672      49.418975      -9.767283
        14        15       0.017100       0.054700       0.014800       0.000000       0.000000       0.000000       0.000000       0.000000         1    -360.000000     360.000000     -68.835938      -9.599923      69.711184      10.980774
        18        19       0.461000       0.685000       0.000000       0.000000       0.000000       0.000000       0.000000       0.000000         1    -360.000000     360.000000       4.634329       1.385185      -4.526617      -1.225135
        19        20       0.283000       0.434000       0.000000       0.000000       0.000000       0.000000       0.000000       0.000000         1    -360.000000     360.000000       1.226617       0.625135      -1.220918      -0.616395
        21        20       0.000000       0.776700       0.000000       0.000000       0.000000       0.000000       1.043000       0.000000         1    -360.000000     360.000000       1.079082       0.394571      -1.079082      -0.383605
        21        22       0.073600       0.117000       0.000000       0.000000       0.000000       0.000000       0.000000       0.000000         1    -360.000000     360.000000      -1.079082      -0.394571       1.080038       0.396090
        22        23       0.009900       0.015200       0.000000       0.000000       0.000000       0.000000       0.000000       0.000000         1    -360.000000     360.000000       9.653974       3.110455      -9.643985      -3.095119
        23        24       0.166000       0.256000       0.008400       0.000000       0.000000       0.000000       0.000000       0.000000         1    -360.000000     360.000000       3.343985       0.995119      -3.322426      -1.808253
        24        25       0.000000       1.182000       0.000000       0.000000       0.000000       0.000000       1.000000       0.000000         1    -360.000000     360.000000       7.067425       1.714037      -7.067425      -1.087959
        24        25       0.000000       1.230000       0.000000       0.000000       0.000000       0.000000       1.000000       0.000000         1    -360.000000     360.000000       6.791623       1.647147      -6.791623      -1.045502
        24        26       0.000000       0.047300       0.000000       0.000000       0.000000       0.000000       1.043000       0.000000         1    -360.000000     360.000000     -10.536623      -1.552931      10.536623       1.611387
        26        27       0.165000       0.254000       0.000000       0.000000       0.000000       0.000000       0.000000       0.000000         1    -360.000000     360.000000     -10.536623      -1.611387      10.740540       1.925297
        27        28       0.061800       0.095400       0.000000       0.000000       0.000000       0.000000       0.000000       0.000000         1    -360.000000     360.000000     -20.040540      -2.425297      20.301940       2.828816
        28        29       0.041800       0.058700       0.000000       0.000000       0.000000       0.000000       0.000000       0.000000         1    -360.000000     360.000000     -24.901940      -5.128816      25.173944       5.510793
         7        29       0.000000       0.064800       0.000000       0.000000       0.000000       0.000000       0.967000       0.000000         1    -360.000000     360.000000      60.090781      13.026313     -60.090781     -10.661379
        25        30       0.135000       0.202000       0.000000       0.000000       0.000000       0.000000       0.000000       0.000000         1    -360.000000     360.000000       7.559048       4.629009      -7.449176      -4.464607
        30        31       0.326000       0.497000       0.000000       0.000000       0.000000       0.000000       0.000000       0.000000         1    -360.000000     360.000000       3.849176       2.664607      -3.772079      -2.547069
        31        32       0.507000       0.755000       0.000000       0.000000       0.000000       0.000000       0.000000       0.000000         1    -360.000000     360.000000      -2.027921      -0.352931       2.052445       0.389450
        32        33       0.039200       0.036000       0.000000       0.000000       0.000000       0.000000       0.000000       0.000000         1    -360.000000     360.000000       3.807880       1.907237      -3.800000      -1.900000
        34        32       0.000000       0.953000       0.000000       0.000000       0.000000       0.000000       0.975000       0.000000         1    -360.000000     360.000000       7.460325       3.785836      -7.460325      -3.096687
        34        35       0.052000       0.078000       0.003200       0.000000       0.000000       0.000000       0.000000       0.000000         1    -360.000000     360.000000      -7.460325      -3.785836       7.499263       3.547663
        35        36       0.043000       0.053700       0.001600       0.000000       0.000000       0.000000       0.000000       0.000000         1    -360.000000     360.000000     -13.499263      -6.547663      13.602497       6.525721
        36        37       0.029000       0.036600       0.000000       0.000000       0.000000       0.000000       0.000000       0.000000         1    -360.000000     360.000000     -17.067203     -10.613999      17.190223      10.769259
        37        38       0.065100       0.100900       0.002000       0.000000       0.000000       0.000000       0.000000       0.000000         1    -360.000000     360.000000     -21.048644     -13.698986      21.470156      14.152717
        37        39       0.023900       0.037900       0.000000       0.000000       0.000000       0.000000       0.000000       0.000000         1    -360.000000     360.000000       3.858422       2.929727      -3.852639      -2.920557
        36        40       0.030000       0.046600       0.000000       0.000000       0.000000       0.000000       0.000000       0.000000         1    -360.000000     360.000000       3.464706       4.088278      -3.455658      -4.074224
        22        38       0.019200       0.029500       0.000000       0.000000       0.000000       0.000000       0.000000       0.000000         1    -360.000000     360.000000     -10.734011      -3.506545      10.758024       3.543440
        11        41       0.000000       0.749000       0.000000       0.000000       0.000000       0.000000       0.955000       0.000000         1    -360.000000     360.000000       9.186948       3.530208      -9.186948      -2.832684
        41        42       0.207000       0.352000       0.000000       0.000000       0.000000       0.000000       0.000000       0.000000         1    -360.000000     360.000000       8.875233       3.272066      -8.688608      -2.954713
        41        43       0.000000       0.412000       0.000000       0.000000       0.000000       0.000000       0.000000       0.000000         1    -360.000000     360.000000     -11.594144      -2.951828      11.594144       3.546042
        38        44       0.028900       0.058500       0.002000       0.000000       0.000000       0.000000       0.000000       0.000000         1    -360.000000     360.000000     -24.345533       5.230118      24.520530      -5.081852
        15        45       0.000000       0.104200       0.000000       0.000000       0.000000       0.000000       0.955000       0.000000         1    -360.000000     360.000000      37.332863      -0.729119     -37.332863       2.086435
        14        46       0.000000       0.073500       0.000000       0.000000       0.000000       0.000000       0.900000       0.000000         1    -360.000000     360.000000      47.894462      27.396763     -47.894462     -25.471096
        46        47       0.023000       0.068000       0.003200       0.000000       0.000000       0.000000       0.000000       0.000000         1    -360.000000     360.000000      47.894462      25.471096     -47.289991     -24.034490
        47        48       0.018200       0.023300       0.000000       0.000000       0.000000       0.000000       0.000000       0.000000         1    -360.000000     360.000000      17.589991      12.434490     -17.510887     -12.333219
        48        49       0.083400       0.129000       0.004800       0.000000       0.000000       0.000000       0.000000       0.000000         1    -360.000000     360.000000       0.081802      -7.376845      -0.041699       6.927854
        49        50       0.080100       0.128000       0.000000       0.000000       0.000000       0.000000       0.000000       0.000000         1    -360.000000     360.000000       9.664908       4.431631      -9.580579      -4.296874
        50        51       0.138600       0.220000       0.000000       0.000000       0.000000       0.000000       0.000000       0.000000         1    -360.000000     360.000000     -11.419421      -6.203126      11.642938       6.557915
        10        51       0.000000       0.071200       0.000000       0.000000       0.000000       0.000000       0.930000       0.000000         1    -360.000000     360.000000      29.642938      12.513366     -29.642938     -11.857915
        13        49       0.000000       0.191000       0.000000       0.000000       0.000000       0.000000       0.895000       0.000000         1    -360.000000     360.000000      32.426491      33.803531     -32.426491     -30.300197
        29        52       0.144200       0.187000       0.000000       0.000000       0.000000       0.000000       0.000000       0.000000         1    -360.000000     360.000000      17.916837       2.550586     -17.454063      -1.950456
        52        53       0.076200       0.098400       0.000000       0.000000       0.000000       0.000000       0.000000       0.000000         1    -360.000000     360.000000      12.554063      -0.249544     -12.429061       0.410964
        53        54       0.187800       0.232000       0.000000       0.000000       0.000000       0.000000       0.000000       0.000000         1    -360.000000     360.000000      -7.570939      -4.471732       7.724957       4.662000
        54        55       0.173200       0.226500       0.000000       0.000000       0.000000       0.000000       0.000000       0.000000         1    -360.000000     360.000000     -11.824957      -6.062000      12.133054       6.464909
        11        43       0.000000       0.153000       0.000000       0.000000       0.000000       0.000000       0.958000       0.000000         1    -360.000000     360.000000      13.594144       4.854479     -13.594144      -4.546042
        44        45       0.062400       0.124200       0.004000       0.000000       0.000000       0.000000       0.000000       0.000000         1    -360.000000     360.000000     -36.520530       3.281852      37.332863      -2.086435