# Imported from MATPOWER Case Format
mpc.version
2
mpc.version.end

# System MVA base
mpc.baseMVA
100
mpc.baseMVA.end

# Bus data: bus_i	type	Pd	Qd	Gs	Bs	area	Vm	Va	baseKV	zone	Vmax	Vmin
mpc.bus
         1         3       0.000000       0.000000       0.000000       0.000000         1       1.060000       0.000000       0.000000         1       1.060000       0.940000
         2         2      21.700000      12.700000       0.000000       0.000000         1       1.045000      -4.982589       0.000000         1       1.060000       0.940000
         3         2      94.200000      19.000000       0.000000       0.000000         1       1.010000     -12.725100       0.000000         1       1.060000       0.940000
         4         1      47.800000      -3.900000       0.000000       0.000000         1       1.017671     -10.312901       0.000000         1       1.060000       0.940000
         5         1       7.600000       1.600000       0.000000       0.000000         1       1.019514      -8.773854       0.000000         1       1.060000       0.940000
         6         2      11.200000       7.500000       0.000000       0.000000         1       1.070000     -14.220946       0.000000         1       1.060000       0.940000
         7         1       0.000000       0.000000       0.000000       0.000000         1       1.061520     -13.359627       0.000000         1       1.060000       0.940000
         8         2       0.000000       0.000000       0.000000       0.000000         1       1.090000     -13.359627       0.000000         1       1.060000       0.940000
         9         1      29.500000      16.600000       0.000000      19.000000         1       1.055932     -14.938521       0.000000         1       1.060000       0.940000
        10         1       9.000000       5.800000       0.000000       0.000000         1       1.050985     -15.097288       0.000000         1       1.060000       0.940000
        11         1       3.500000       1.800000       0.000000       0.000000         1       1.056907     -14.790622       0.000000         1       1.060000       0.940000
        12         1       6.100000       1.600000       0.000000       0.000000         1       1.055189     -15.075585       0.000000         1       1.060000       0.940000
        13         1      13.500000       5.800000       0.000000       0.000000         1       1.050382     -15.156276       0.000000         1       1.060000       0.940000
        14         1      14.900000       5.000000       0.000000       0.000000         1       1.035530     -16.033645       0.000000         1       1.060000       0.940000
mpc.bus.end

# generator data: bus	Pg	Qg	Qmax	Qmin	Vg	mBase	status	Pmax	Pmin	Pc1	Pc2	Qc1min	Qc1max	Qc2min	Qc2max	ramp_agc	ramp_10	ramp_30	ramp_q	apf
mpc.gen
         1     232.393272     -16.549301      10.000000       0.000000       1.060000     100.000000         1     332.400000       0.000000       0.000000       0.000000       0.000000       0.000000       0.000000       0.000000       0.000000       0.000000       0.000000       0.000000       0.000000
         2      40.000000      43.557100      50.000000     -40.000000       1.045000     100.000000         1     140.000000       0.000000       0.000000       0.000000       0.000000       0.000000       0.000000       0.000000       0.000000       0.000000       0.000000       0.000000       0.000000
         3       0.000000      25.075348      40.000000       0.000000       1.010000     100.000000         1     100.000000       0.000000       0.000000       0.000000       0.000000       0.000000       0.000000       0.000000       0.000000       0.000000       0.000000       0.000000       0.000000
         6       0.000000      12.730944      24.000000      -6.000000       1.070000     100.000000         1     100.000000       0.000000       0.000000       0.000000       0.000000       0.000000       0.000000       0.000000       0.000000       0.000000       0.000000       0.000000       0.000000
         8       0.000000      17.623451      24.000000      -6.000000       1.090000     100.000000         1     100.000000       0.000000       0.000000       0.000000       0.000000       0.000000       0.000000       0.000000       0.000000       0.000000       0.000000       0.000000       0.000000
mpc.gen.end

# branch data: fbus	tbus	r	x	b	rateA	rateB	rateC	ratio	angle	status	angmin	angmax PF* QF* PT* QT*
mpc.branch
         1         2       0.019380       0.059170       0.052800       0.000000       0.000000       0.000000       0.000000       0.000000         1    -360.000000     360.000000     156.882891     -20.404292    -152.585290      27.676250
         1         5       0.054030       0.223040       0.049200       0.000000       0.000000       0.000000       0.000000       0.000000         1    -360.000000     360.000000      75.510382       3.854991     -72.747509       2.229359
         2         3       0.046990       0.197970       0.043800       0.000000       0.000000       0.000000       0.000000       0.000000         1    -360.000000     360.000000      73.237579       3.560203     -70.914310       1.602233
         2         4       0.058110       0.176320       0.034000       0.000000       0.000000       0.000000       0.000000       0.000000         1    -360.000000     360.000000      56.131496      -1.550350     -54.454838       3.020687
         2         5       0.056950       0.173880       0.034600       0.000000       0.000000       0.000000       0.000000       0.000000         1    -360.000000     360.000000      41.516215       1.170998     -40.612462      -2.099034
         3         4       0.067010       0.171030       0.012800       0.000000       0.000000       0.000000       0.000000       0.000000         1    -360.000000     360.000000     -23.285690       4.473116      23.659135      -4.835652
         4         5       0.013350       0.042110       0.000000       0.000000       0.000000       0.000000       0.000000       0.000000         1    -360.000000     360.000000     -61.158230      15.823642      61.672650     -14.201005
         4         7       0.000000       0.209120       0.000000       0.000000       0.000000       0.000000       0.978000       0.000000         1    -360.000000     360.000000      28.074176      -9.681066     -28.074176      11.384280
         4         9       0.000000       0.556180       0.000000       0.000000       0.000000       0.000000       0.969000       0.000000         1    -360.000000     360.000000      16.079758      -0.427611     -16.079758       1.732322
         5         6       0.000000       0.252020       0.000000       0.000000       0.000000       0.000000       0.932000       0.000000         1    -360.000000     360.000000      44.087321      12.470680     -44.087321      -8.049518
         6        11       0.094980       0.198900       0.000000       0.000000       0.000000       0.000000       0.000000       0.000000         1    -360.000000     360.000000       7.353277       3.560473      -7.297904      -3.444514
         6        12       0.122910       0.255810       0.000000       0.000000       0.000000       0.000000       0.000000       0.000000         1    -360.000000     360.000000       7.786067       2.503414      -7.714258      -2.353959
         6        13       0.066150       0.130270       0.000000       0.000000       0.000000       0.000000       0.000000       0.000000         1    -360.000000     360.000000      17.747977       7.216575     -17.535891      -6.798913
         7         8       0.000000       0.176150       0.000000       0.000000       0.000000       0.000000       0.000000       0.000000         1    -360.000000     360.000000      -0.000000     -17.162971       0.000000      17.623451
         7         9       0.000000       0.110010       0.000000       0.000000       0.000000       0.000000       0.000000       0.000000         1    -360.000000     360.000000      28.074176       5.778691     -28.074176      -4.976622
         9        10       0.031810       0.084500       0.000000       0.000000       0.000000       0.000000       0.000000       0.000000         1    -360.000000     360.000000       5.227552       4.219138      -5.214678      -4.184937
         9        14       0.127110       0.270380       0.000000       0.000000       0.000000       0.000000       0.000000       0.000000         1    -360.000000     360.000000       9.426381       3.610006      -9.310227      -3.362931
        10        11       0.082050       0.192070       0.000000       0.000000       0.000000       0.000000       0.000000       0.000000         1    -360.000000     360.000000      -3.785322      -1.615063       3.797904       1.644514
        12        13       0.220920       0.199880       0.000000       0.000000       0.000000       0.000000       0.000000       0.000000         1    -360.000000     360.000000       1.614258       0.753959      -1.607960      -0.748261
        13        14       0.170930       0.348020       0.000000       0.000000       0.000000       0.000000       0.000000       0.000000         1    -360.000000     360.000000       5.643851       1.747174      -5.589773      -1.637069
mpc.branch.end

