# Imported from MATPOWER Case Format
mpc.version
2
mpc.version.end

# System MVA base
mpc.baseMVA
100
mpc.baseMVA.end

# Bus data: bus_i	type	Pd	Qd	Gs	Bs	area	Vm	Va	baseKV	zone	Vmax	Vmin
mpc.bus
         1         1       0.000000       0.000000       0.000000       0.000000         1       1.080720      -5.865639     220.000000         1       1.110000       0.950000      91.075200       0.161200       0.000000       0.000000
         2         1       0.000000       0.000000       0.000000       0.000000         1       1.082839      -2.424979     220.000000         1       1.110000       0.950000      90.237200       0.098100       0.000000       0.000000
         3         1       0.000000       0.000000       0.000000       0.000000         1       1.067353     -23.647124     220.000000         1       1.110000       0.950000      99.474600       0.055600       0.000000       0.000000
         4         1       0.000000       0.000000       0.000000       0.000000         1       1.070449      -8.951681     220.000000         1       1.110000       0.950000      92.534800       0.217000       0.000000       0.000000
         5         1       0.000000       0.000000       0.000000       0.000000         1       1.070461      -8.958317     220.000000         1       1.110000       0.950000      92.536200       0.216600       0.000000       0.000000
         6         1       0.000000       0.000000       0.000000       0.000000         1       1.056457     -17.512265     220.000000         1       1.110000       0.950000      95.777600       0.079700       0.000000       0.000000
         7         1       0.000000       0.000000       0.000000       0.000000         1       1.056537     -17.509100     220.000000         1       1.110000       0.950000      95.774600       0.079200       0.000000       0.000000
         8         1       0.000000       0.000000       0.000000     -50.000000         1       1.018130     -15.219915     400.000000         1       1.050000       0.950000      95.405700      -0.145200       0.000000       0.000000
         9         1       0.000000       0.000000       0.000000       0.000000         1       1.018178     -15.222786     400.000000         1       1.050000       0.950000      95.407400      -0.144800       0.000000       0.000000
        10         1       0.000000       0.000000       0.000000       0.000000         1       1.049669     -17.464181     220.000000         1       1.110000       0.950000      96.265100       0.144600       0.000000       0.000000
        11         1       0.000000       0.000000       0.000000       0.000000         1       1.049589     -17.478095     220.000000         1       1.110000       0.950000      96.267500       0.144100       0.000000       0.000000
        12         1       0.000000       0.000000       0.000000       0.000000         1       1.049623     -17.470428     220.000000         1       1.110000       0.950000      96.264300       0.141800       0.000000       0.000000
        13         1       0.000000       0.000000       0.000000     -50.000000         1       1.008497     -13.404757     400.000000         1       1.050000       0.950000      94.730200       0.126800       0.000000       0.000000
        14         1       0.000000       0.000000       0.000000       0.000000         1       1.008602     -13.399206     400.000000         1       1.050000       0.950000      94.727400       0.125400       0.000000       0.000000
        15         1       0.000000       0.000000       0.000000       0.000000         1       1.022521     -16.520875     400.000000         1       1.050000       0.950000      95.229300      -1.350900       0.000000       0.000000
        16         1       0.000000       0.000000       0.000000       0.000000         1       1.022521     -16.520875     400.000000         1       1.050000       0.950000      95.229300      -1.350900       0.000000       0.000000
        17         2       2.302000      31.000000       0.000000       0.000000         1       1.090880     -19.630954     220.000000         1       1.110000       0.950000      97.204100      -0.000000       0.000000       0.000000
        18         2       9.700000      40.000000       0.000000       0.000000         1       1.090910     -19.632692     220.000000         1       1.110000       0.950000      97.205400       0.000000       0.000000       0.000000
        19         1       0.000000       0.000000       0.000000       0.000000         1       1.073985      -8.131364     220.000000         1       1.110000       0.950000      92.169900       0.215500       0.000000       0.000000
        20         1       0.000000       0.000000       0.000000       0.000000         1       1.073981      -8.127469     220.000000         1       1.110000       0.950000      92.170800       0.215800       0.000000       0.000000
        21         1       0.000000       0.000000       0.000000       0.000000         1       1.071380     -19.254435     220.000000         1       1.110000       0.950000      97.132800       0.014300       0.000000       0.000000
        22         1       0.000000       0.000000       0.000000       0.000000         1       1.071380     -19.254435     220.000000         1       1.110000       0.950000      97.132800       0.014300       0.000000       0.000000
        23         1       0.000000       0.000000       0.000000       0.000000         1       1.050214     -17.397243     220.000000         1       1.110000       0.950000      96.197000       0.070000       0.000000       0.000000
        24         1       0.000000       0.000000       0.000000       0.000000         1       1.076531      -6.005401     220.000000         1       1.110000       0.950000      91.493200       0.172200       0.000000       0.000000
        25         1       0.000000       0.000000       0.000000     -50.000000         1       1.019817     -18.250402     400.000000         1       1.050000       0.950000      97.108400       0.991500       0.000000       0.000000
        26         2      28.565000      42.054000       0.000000       0.000000         1       1.090910      -5.675810     220.000000         1       1.110000       0.950000      90.971700      -0.000000       0.000000       0.000000
        27         2      85.005000     122.060000       0.000000       0.000000         1       1.090910      -2.200943     220.000000         1       1.110000       0.950000      90.129900       0.000000    1246.220600       0.000000
        28         3      44.783000      80.000000       0.000000       0.000000         1       1.032500      -4.412957     400.000000         1       1.050000       0.950000      91.176700      -0.000000       0.000000       0.000000
        29         2      60.097000      90.000000       0.000000       0.000000         1       1.032500      -4.403789     400.000000         1       1.050000       0.950000      91.171800      -0.001700       0.000000       0.000000
        30         1       0.000000       0.000000       0.000000       0.000000         1       1.057243     -18.688438     220.000000         1       1.110000       0.950000      97.071600       0.170400       0.000000       0.000000
        31         1       0.000000       0.000000       0.000000       0.000000         1       1.032174      -5.452996     400.000000         1       1.050000       0.950000      91.207000      -0.320800       0.000000       0.000000
        32         1       0.000000       0.000000       0.000000       0.000000         1       1.047444     -17.619432     220.000000         1       1.110000       0.950000      96.332600       0.165500       0.000000       0.000000
        33         1       0.000000       0.000000       0.000000       0.000000         1       1.076535      -6.004477     220.000000         1       1.110000       0.950000      91.493000       0.172200       0.000000       0.000000
        34         1       0.000000       0.000000       0.000000       0.000000         1       1.071778     -11.952961     220.000000         1       1.110000       0.950000      93.743200       0.187600       0.000000       0.000000
        35         1       0.000000       0.000000       0.000000       0.000000         1       1.084942     -15.135513     220.000000         2       1.110000       0.950000      94.788300      -0.865700       0.000000       0.000000
        36         1       0.000000       0.000000       0.000000       0.000000         1       1.080922     -15.618112     220.000000         2       1.110000       0.950000      95.339400      -0.817200       0.000000       0.000000
        37         1       0.000000       0.000000       0.000000       0.000000         1       1.088846     -14.628516     220.000000         2       1.110000       0.950000      94.703800      -1.076800       0.000000       0.000000
        38         1       0.000000       0.000000       0.000000       0.000000         1       1.088828     -14.631426     220.000000         2       1.110000       0.950000      94.705300      -1.076500       0.000000       0.000000
        39         1       0.000000       0.000000       0.000000       0.000000         1       1.076322     -16.202833     220.000000         2       1.110000       0.950000      95.629600      -0.655700       0.000000       0.000000
        40         1       0.000000       0.000000       0.000000       0.000000         1       1.100264     -13.840723     220.000000         2       1.110000       0.950000      94.141500      -3.497500   20377.261400       0.000000
        41         1       0.000000       0.000000       0.000000       0.000000         1       1.100184     -13.843868     220.000000         2       1.110000       0.950000      94.143400      -3.483700       0.000000       0.000000
        42         1       0.000000       0.000000       0.000000       0.000000         1       1.018582     -13.904607     400.000000         2       1.050000       0.950000      94.240500      -2.405900       0.000000       0.000000
        43         2      12.000000       0.000000       0.000000       0.000000         1       1.090910     -13.801781     220.000000         2       1.110000       0.950000      94.252800      -0.689100       0.000000       0.000000
        44         2      24.000000       0.000000       0.000000       0.000000         1       1.090960     -13.786620     220.000000         2       1.110000       0.950000      94.248800      -0.690800       0.000000       0.000000
        45         2      20.000000       0.000000       0.000000       0.000000         1       1.032500     -13.639379     400.000000         2       1.050000       0.950000      94.560000      -0.586200       0.000000       0.000000
        46         1       0.000000       0.000000       0.000000       0.000000         1       1.032441     -13.641260     400.000000         2       1.050000       0.950000      94.559500      -0.586500       0.000000       0.000000
        47         1       0.000000       0.000000       0.000000       0.000000         1       1.098602     -14.277782     220.000000         2       1.110000       0.950000      94.426800      -3.301600       0.000000       0.000000
        48         1       0.000000       0.000000       0.000000       0.000000         1       1.024707     -17.660598     400.000000         2       1.050000       0.950000      95.614200      -0.676800       0.000000       0.000000
        49         1       0.000000       0.000000       0.000000       0.000000         1       1.024690     -17.666366     400.000000         2       1.050000       0.950000      95.616900      -0.675900       0.000000       0.000000
        50         1       0.000000       0.000000       0.000000       0.000000         1       1.024206     -14.104858     400.000000         2       1.050000       0.950000      94.669400      -0.638300       0.000000       0.000000
        51         1       0.000000       0.000000       0.000000       0.000000         1       1.079416     -15.313059     220.000000         2       1.110000       0.950000      95.050300      -0.662600       0.000000       0.000000
        52         1       0.000000       0.000000       0.000000       0.000000         1       1.079422     -15.309900     220.000000         2       1.110000       0.950000      95.050300      -0.661900       0.000000       0.000000
        53         1       0.000000       0.000000       0.000000       0.000000         1       1.031335     -14.387251     400.000000         2       1.050000       0.950000      94.664000      -1.082200       0.000000       0.000000
        54         1       0.000000       0.000000       0.000000       0.000000         1       1.031350     -14.387542     400.000000         2       1.050000       0.950000      94.663800      -1.083400       0.000000       0.000000
        55         2      12.000000       0.000000       0.000000       0.000000         1       1.091210     -13.729939     220.000000         2       1.110000       0.950000      94.285800      -1.174100       0.000000       0.000000
        56         2      12.000000       0.000000       0.000000       0.000000         1       1.091150     -13.729824     220.000000         2       1.110000       0.950000      94.283100      -1.176600       0.000000       0.000000
        57         2      12.000000       0.000000       0.000000       0.000000         1       1.033360     -14.026111     400.000000         2       1.050000       0.950000      94.469900      -1.220500       0.000000       0.000000
        58         2      12.000000       0.000000       0.000000       0.000000         1       1.033370     -14.031007     400.000000         2       1.050000       0.950000      94.471600      -1.221500       0.000000       0.000000
        59         2     170.733000      62.000000       0.000000       0.000000         1       1.084150     -14.843770     220.000000         2       1.110000       0.950000      94.718400      -0.719600       0.000000       0.000000
        60         1       0.000000       0.000000       0.000000       0.000000         1       1.084201     -14.839598     220.000000         2       1.110000       0.950000      94.716600      -0.720000       0.000000       0.000000
        61         1       0.000000       0.000000       0.000000       0.000000         1       1.095230     -14.419011     220.000000         2       1.110000       0.950000      94.460700      -2.815000       0.000000       0.000000
        62         1       0.000000       0.000000       0.000000       0.000000         1       1.087987     -14.594008     220.000000         2       1.110000       0.950000      94.712200      -1.257500       0.000000       0.000000
        63         1       0.000000       0.000000       0.000000       0.000000         1       1.087964     -14.595839     220.000000         2       1.110000       0.950000      94.712500      -1.253500       0.000000       0.000000
        64         1       0.000000       0.000000       0.000000       0.000000         1       1.034241     -15.283296     400.000000         2       1.050000       0.950000      94.846000      -0.954900       0.000000       0.000000
        65         1       0.000000       0.000000       0.000000       0.000000         1       1.034210     -15.294380     400.000000         2       1.050000       0.950000      94.850100      -0.953400       0.000000       0.000000
        66         1       0.000000       0.000000       0.000000       0.000000         1       1.086982     -15.402301     220.000000         2       1.110000       0.950000      95.015400      -0.974400       0.000000       0.000000
        67         1       0.000000       0.000000       0.000000       0.000000         1       1.087760     -15.236716     220.000000         2       1.110000       0.950000      94.920600      -0.998300       0.000000       0.000000
        68         1       0.000000       0.000000       0.000000       0.000000         1       1.080551     -14.628328     220.000000         2       1.110000       0.950000      94.745200      -0.565600       0.000000       0.000000
        69         1       0.000000       0.000000       0.000000       0.000000         1       1.083003      -9.425760     220.000000         3       1.110000       0.950000      92.553600      -0.436300       0.000000       0.000000
        70         1       6.800000       0.000000       0.000000       0.000000         1       1.093143     -14.863145     220.000000         3       1.110000       0.950000      94.857700      -0.662200       0.000000       0.000000
        71         1      11.331000       2.430000       0.000000       0.000000         1       1.093006     -14.870963     220.000000         3       1.110000       0.950000      94.862500      -0.660500       0.000000       0.000000
        72         1       0.000000       0.000000       0.000000       0.000000         1       1.087910     -13.638605     220.000000         3       1.110000       0.950000      94.428700       0.052900       0.000000       0.000000
        73         1       0.000000       0.000000       0.000000       0.000000         1       1.087939     -13.622867     220.000000         3       1.110000       0.950000      94.423200       0.052000       0.000000       0.000000
        74         1       0.000000       0.000000       0.000000       0.000000         1       1.087792     -10.991496     220.000000         3       1.110000       0.950000      92.844800      -0.006100       0.000000       0.000000
        75         1       0.000000       0.000000       0.000000       0.000000         1       1.087774     -10.996696     220.000000         3       1.110000       0.950000      92.846800      -0.006100       0.000000       0.000000
        76         1       0.000000       0.000000       0.000000       0.000000         1       1.088109     -18.085054     220.000000         3       1.110000       0.950000      96.483900      -0.159000       0.000000       0.000000
        77         1       0.000000       0.000000       0.000000       0.000000         1       1.088072     -18.097316     220.000000         3       1.110000       0.950000      96.488800      -0.158300       0.000000       0.000000
        78         2      26.999000      69.999000       0.000000       0.000000         1       1.090910     -12.557421     220.000000         3       1.110000       0.950000      93.875500       0.000000       0.000000       0.000000
        79         2       8.999000      20.999000       0.000000       0.000000         1       1.090340     -13.123748     220.000000         3       1.110000       0.950000      94.110600      -0.127400       0.000000       0.000000
        80         1      10.085000       1.376000       0.000000       0.000000         1       1.081632     -12.887201     220.000000         3       1.110000       0.950000      94.240900       0.160600       0.000000       0.000000
        81         1       0.000000       0.000000       0.000000       0.000000         1       1.081661     -12.890803     220.000000         3       1.110000       0.950000      94.242600       0.160200       0.000000       0.000000
        82         2      34.999000     107.999000       0.000000       0.000000         1       1.029930      -6.650162     400.000000         3       1.050000       0.950000      91.267300      -0.274600       0.000000       0.000000
        83         1       0.000000       0.000000       0.000000       0.000000         1       1.084882     -10.558132     220.000000         3       1.110000       0.950000      92.224700       0.108300       0.000000       0.000000
        84         1       0.000000       0.000000       0.000000       0.000000         1       1.088495     -11.677790     220.000000         3       1.110000       0.950000      93.171200       0.006100       0.000000       0.000000
        85         1       0.000000       0.000000       0.000000       0.000000         1       1.088490     -11.687660     220.000000         3       1.110000       0.950000      93.176100       0.005700       0.000000       0.000000
        86         1      44.148000      10.561000       0.000000       0.000000         1       1.083435      -9.504249     220.000000         3       1.110000       0.950000      92.507600      -0.394300       0.000000       0.000000
        87         1       0.000000       0.000000       0.000000       0.000000         1       1.083417      -9.509513     220.000000         3       1.110000       0.950000      92.509300      -0.394200       0.000000       0.000000
        88         1       0.000000       0.000000       0.000000       0.000000         1       1.085064     -11.654648     220.000000         3       1.110000       0.950000      93.227900       0.116900       0.000000       0.000000
        89         1       0.000000       0.000000       0.000000       0.000000         1       1.085057     -11.661782     220.000000         3       1.110000       0.950000      93.231300       0.117200       0.000000       0.000000
        90         1       0.000000       0.000000       0.000000       0.000000         1       1.085890      -9.055228     220.000000         3       1.110000       0.950000      92.309300      -0.419600       0.000000       0.000000
        91         1       0.000000       0.000000       0.000000       0.000000         1       1.085887      -9.050772     220.000000         3       1.110000       0.950000      92.308400      -0.423000       0.000000       0.000000
        92         1       0.000000       0.000000       0.000000       0.000000         1       1.034838      -6.773784     400.000000         3       1.050000       0.950000      91.902100      -0.219400       0.000000       0.000000
        93         1       0.000000       0.000000       0.000000       0.000000         1       1.034840      -6.774086     400.000000         3       1.050000       0.950000      91.901900      -0.219300       0.000000       0.000000
        94         1       0.000000       0.000000       0.000000       0.000000         1       1.089416     -10.992668     220.000000         3       1.110000       0.950000      92.675900       0.014500       0.000000       0.000000
        95         1       0.000000       0.000000       0.000000       0.000000         1       1.089417     -10.992611     220.000000         3       1.110000       0.950000      92.675300       0.014700       0.000000       0.000000
        96         1       0.000000       0.000000       0.000000       0.000000         1       1.085390     -10.722974     220.000000         3       1.110000       0.950000      92.543100       0.080500       0.000000       0.000000
        97         1       0.000000       0.000000       0.000000       0.000000         1       1.085394     -10.722204     220.000000         3       1.110000       0.950000      92.541700       0.080500       0.000000       0.000000
        98         1      17.111000       6.317000       0.000000       0.000000         1       1.087403     -12.812819     220.000000         3       1.110000       0.950000      93.948300      -0.327300       0.000000       0.000000
        99         1       0.000000       0.000000       0.000000       0.000000         1       1.087387     -12.808563     220.000000         3       1.110000       0.950000      93.946800      -0.329200       0.000000       0.000000
       100         1       0.000000       0.000000       0.000000       0.000000         1       1.093176     -14.845221     220.000000         3       1.110000       0.950000      94.849100      -0.662900       0.000000       0.000000
       101         1       0.000000       0.000000       0.000000       0.000000         1       1.093172     -14.847085     220.000000         3       1.110000       0.950000      94.849700      -0.661600       0.000000       0.000000
       102         1       0.000000       0.000000       0.000000       0.000000         1       1.087166     -17.299144     220.000000         3       1.110000       0.950000      96.174100      -0.069000       0.000000       0.000000
       103         1       0.000000       0.000000       0.000000       0.000000         1       1.087106     -17.286652     220.000000         3       1.110000       0.950000      96.171200      -0.067800       0.000000       0.000000
       104         2      13.999000      39.999000       0.000000       0.000000         1       1.090910     -11.016607     220.000000         3       1.110000       0.950000      92.780000       0.000000       0.000000       0.000000
       105         2       0.000000       0.000000       0.000000       0.000000         1       1.090912     -11.029534     220.000000         3       1.110000       0.950000      92.782400      -0.000300       0.000000       0.000000
       106         2       6.999000      17.999000       0.000000       0.000000         1       1.090910     -10.877173     220.000000         3       1.110000       0.950000      92.716300       0.000000       0.000000       0.000000
       107         2       7.999000      14.999000       0.000000       0.000000         1       1.090910     -10.880141     220.000000         3       1.110000       0.950000      92.718900       0.000200       0.000000       0.000000
       108         1      52.726000      17.138000       0.000000       0.000000         1       1.085446     -12.304710     220.000000         3       1.110000       0.950000      93.711200      -0.528400       0.000000       0.000000
       109         1      56.444000      10.902000       0.000000       0.000000         1       1.085492     -12.318381     220.000000         3       1.110000       0.950000      93.715300      -0.533300       0.000000       0.000000
       110         1       0.000000       0.000000       0.000000       0.000000         1       1.087137     -14.014219     220.000000         3       1.110000       0.950000      94.734200      -0.090700       0.000000       0.000000
       111         1       0.000000       0.000000       0.000000       0.000000         1       1.076889     -11.914484     220.000000         3       1.110000       0.950000      93.585000       0.304400       0.000000       0.000000
       112         1       0.000000       0.000000       0.000000       0.000000         1       1.076926     -11.919219     220.000000         3       1.110000       0.950000      93.587000       0.303800       0.000000       0.000000
       113         1       0.000000       0.000000       0.000000       0.000000         1       1.083303     -13.148869     220.000000         3       1.110000       0.950000      94.398700       0.126600       0.000000       0.000000
       114         1       0.000000       0.000000       0.000000       0.000000         1       1.083358     -13.144347     220.000000         3       1.110000       0.950000      94.395900       0.125700       0.000000       0.000000
       115         1       0.000000       0.000000       0.000000       0.000000         1       1.027318      -9.407100     400.000000         3       1.050000       0.950000      92.545300      -0.180900       0.000000       0.000000
       116         2       0.000000       0.000000       0.000000       0.000000         1       1.090458     -12.912209     220.000000         3       1.110000       0.950000      94.039300      -0.117500       0.000000       0.000000
       117         2       7.999000      14.999000       0.000000       0.000000         1       1.090460     -12.902721     220.000000         3       1.110000       0.950000      94.037000      -0.117000       0.000000       0.000000
       118         2       5.499000       9.999000       0.000000       0.000000         1       1.089000     -13.559439     220.000000         3       1.110000       0.950000      94.491800      -0.263800       0.000000       0.000000
       119         1       0.000000       0.000000       0.000000       0.000000         1       1.089041     -13.565217     220.000000         3       1.110000       0.950000      94.494100      -0.264000       0.000000       0.000000
       120         1       0.000000       0.000000       0.000000       0.000000         1       1.035904     -13.986545     400.000000         3       1.050000       0.950000      94.447700      -0.921100       0.000000       0.000000
       121         1       0.000000       0.000000       0.000000       0.000000         1       1.035932     -13.979184     400.000000         3       1.050000       0.950000      94.444400      -0.921500       0.000000       0.000000
       122         1       0.000000       0.000000       0.000000       0.000000         1       1.030927      -9.571621     400.000000         3       1.050000       0.950000      92.646700      -0.291100       0.000000       0.000000
       123         1       0.000000       0.000000       0.000000       0.000000         1       1.030962      -9.570023     400.000000         3       1.050000       0.950000      92.646900      -0.291800       0.000000       0.000000
       124         1       0.000000       0.000000       0.000000       0.000000         1       1.086269     -14.033889     220.000000         3       1.110000       0.950000      94.783000      -0.107300       0.000000       0.000000
       125         2      19.213000      21.474000       0.000000       0.000000         1       1.090910      -9.949299     220.000000         3       1.110000       0.950000      92.295900       0.000000     312.717800       0.000000
       126         2      30.672000      33.602000       0.000000       0.000000         1       1.090820      -9.957450     220.000000         3       1.110000       0.950000      92.301600       0.001400       0.000000       0.000000