# Imported from MATPOWER Case Format
mpc.version
2
mpc.version.end

# System MVA base
mpc.baseMVA
100
mpc.baseMVA.end

# Bus data: bus_i	type	Pd	Qd	Gs	Bs	area	Vm	Va	baseKV	zone	Vmax	Vmin
mpc.bus
         1         3       0.000000       0.000000       0.000000       0.000000         1       1.050000       0.000000     230.000000         1       1.050000       1.050000
         2         2       0.000000       0.000000       0.000000       0.000000         1       1.050000      -3.671157     230.000000         1       1.050000       1.050000
         3         2       0.000000       0.000000       0.000000       0.000000         1       1.070000      -4.273267     230.000000         1       1.070000       1.070000
         4         1      70.000000      70.000000       0.000000       0.000000         1       0.989373      -4.195822     230.000000         1       1.050000       0.950000
         5         1      70.000000      70.000000       0.000000       0.000000         1       0.985445      -5.276388     230.000000         1       1.050000       0.950000
         6         1      70.000000      70.000000       0.000000       0.000000         1       1.004425      -5.947454     230.000000         1       1.050000       0.950000
mpc.bus.end

# generator data: bus	Pg	Qg	Qmax	Qmin	Vg	mBase	status	Pmax	Pmin	Pc1	Pc2	Qc1min	Qc1max	Qc2min	Qc2max	ramp_agc	ramp_10	ramp_30	ramp_q	apf
mpc.gen
         1     107.875497      15.956206     100.000000    -100.000000       1.050000     100.000000         1     200.000000      50.000000       0.000000       0.000000       0.000000       0.000000       0.000000       0.000000       0.000000       0.000000       0.000000       0.000000       0.000000
         2      50.000000      74.356475     100.000000    -100.000000       1.050000     100.000000         1     150.000000      37.500000       0.000000       0.000000       0.000000       0.000000       0.000000       0.000000       0.000000       0.000000       0.000000       0.000000       0.000000
         3      60.000000      89.626774     100.000000    -100.000000       1.070000     100.000000         1     180.000000      45.000000       0.000000       0.000000       0.000000       0.000000       0.000000       0.000000       0.000000       0.000000       0.000000       0.000000       0.000000
mpc.gen.end

# branch data: fbus	tbus	r	x	b	rateA	rateB	rateC	ratio	angle	status	angmin	angmax PF* QF* PT* QT*
mpc.branch
         1         2       0.100000       0.200000       0.040000      40.000000      40.000000      40.000000       0.000000       0.000000         1    -360.000000     360.000000      28.689679     -15.418662     -27.784737      12.818546
         1         4       0.050000       0.200000       0.040000      60.000000      60.000000      60.000000       0.000000       0.000000         1    -360.000000     360.000000      43.584949      20.120150     -42.497394     -19.932645
         1         5       0.080000       0.300000       0.060000      40.000000      40.000000      40.000000       0.000000       0.000000         1    -360.000000     360.000000      35.600868      11.254719     -34.527323     -13.449727
         2         3       0.050000       0.250000       0.060000      40.000000      40.000000      40.000000       0.000000       0.000000         1    -360.000000     360.000000       2.930320     -12.268749      -2.890006       5.728116
         2         4       0.050000       0.100000       0.020000      60.000000      60.000000      60.000000       0.000000       0.000000         1    -360.000000     360.000000      33.090947      46.054068     -31.585843     -45.125221
         2         5       0.100000       0.300000       0.040000      30.000000      30.000000      30.000000       0.000000       0.000000         1    -360.000000     360.000000      15.514526      15.353153     -15.016577     -18.006508
         2         6       0.070000       0.200000       0.050000      90.000000      90.000000      90.000000       0.000000       0.000000         1    -360.000000     360.000000      26.248945      12.399457     -25.665642     -16.011301
         3         5       0.120000       0.260000       0.050000      70.000000      70.000000      70.000000       0.000000       0.000000         1    -360.000000     360.000000      19.116824      23.174456     -18.023248     -26.095044
         3         6       0.020000       0.100000       0.020000      80.000000      80.000000      80.000000       0.000000       0.000000         1    -360.000000     360.000000      43.773182      60.724203     -42.769797     -57.861048
         4         5       0.200000       0.400000       0.080000      20.000000      20.000000      20.000000       0.000000       0.000000         1    -360.000000     360.000000       4.083237      -4.942135      -4.047018      -2.785267
         5         6       0.100000       0.300000       0.060000      40.000000      40.000000      40.000000       0.000000       0.000000         1    -360.000000     360.000000       1.614165      -9.663454      -1.564561       3.872349
mpc.branch.end

