# Imported from MATPOWER Case Format
mpc.version
2
mpc.version.end

# System MVA base
mpc.baseMVA
100
mpc.baseMVA.end

# Bus data: bus_i	type	Pd	Qd	Gs	Bs	area	Vm	Va	baseKV	zone	Vmax	Vmin
mpc.bus
         1         2      51.000000      27.000000       0.000000       0.000000         1       0.955000      10.972740     138.000000         1       1.060000       0.940000
         2         1      20.000000       9.000000       0.000000       0.000000         1       0.971393      11.512547     138.000000         1       1.060000       0.940000
         3         1      39.000000      10.000000       0.000000       0.000000         1       0.967692      11.856190     138.000000         1       1.060000       0.940000
         4         2      39.000000      12.000000       0.000000       0.000000         1       0.998000      15.574090     138.000000         1       1.060000       0.940000
         5         1       0.000000       0.000000       0.000000     -40.000000         1       1.001985      16.019179     138.000000         1       1.060000       0.940000
         6         2      52.000000      22.000000       0.000000       0.000000         1       0.990000      13.291872     138.000000         1       1.060000       0.940000
         7         1      19.000000       2.000000       0.000000       0.000000         1       0.989328      12.847338     138.000000         1       1.060000       0.940000
         8         2      28.000000       0.000000       0.000000       0.000000         1       1.015000      21.040584     345.000000         1       1.060000       0.940000
         9         1       0.000000       0.000000       0.000000       0.000000         1       1.042918      28.294689     345.000000         1       1.060000       0.940000
        10         2       0.000000       0.000000       0.000000       0.000000         1       1.050000      35.875599     345.000000         1       1.060000       0.940000
        11         1      70.000000      23.000000       0.000000       0.000000         1       0.985089      13.005800     138.000000         1       1.060000       0.940000
        12         2      47.000000      10.000000       0.000000       0.000000         1       0.990000      12.488912     138.000000         1       1.060000       0.940000
        13         1      34.000000      16.000000       0.000000       0.000000         1       0.968302      11.629748     138.000000         1       1.060000       0.940000
        14         1      14.000000       1.000000       0.000000       0.000000         1       0.983591      11.771459     138.000000         1       1.060000       0.940000
        15         2      90.000000      30.000000       0.000000       0.000000         1       0.970000      11.474147     138.000000         1       1.060000       0.940000
        16         1      25.000000      10.000000       0.000000       0.000000         1       0.983897      12.187338     138.000000         1       1.060000       0.940000
        17         1      11.000000       3.000000       0.000000       0.000000         1       0.995089      13.995221     138.000000         1       1.060000       0.940000
        18         2      60.000000      34.000000       0.000000       0.000000         1       0.973000      11.780792     138.000000         1       1.060000       0.940000
        19         2      45.000000      25.000000       0.000000       0.000000         1       0.962000      11.314648     138.000000         1       1.060000       0.940000
        20         1      18.000000       3.000000       0.000000       0.000000         1       0.956934      12.191004     138.000000         1       1.060000       0.940000
        21         1      14.000000       8.000000       0.000000       0.000000         1       0.957725      13.777986     138.000000         1       1.060000       0.940000
        22         1      10.000000       5.000000       0.000000       0.000000         1       0.969019      16.331637     138.000000         1       1.060000       0.940000
        23         1       7.000000       3.000000       0.000000       0.000000         1       0.999469      21.248704     138.000000         1       1.060000       0.940000
        24         2      13.000000       0.000000       0.000000       0.000000         1       0.992000      21.113869     138.000000         1       1.060000       0.940000
        25         2       0.000000       0.000000       0.000000       0.000000         1       1.050000      28.179839     138.000000         1       1.060000       0.940000
        26         2       0.000000       0.000000       0.000000       0.000000         1       1.015000      29.960195     345.000000         1       1.060000       0.940000
        27         2      71.000000      13.000000       0.000000       0.000000         1       0.968000      15.604439     138.000000         1       1.060000       0.940000
        28         1      17.000000       7.000000       0.000000       0.000000         1       0.961568      13.878871     138.000000         1       1.060000       0.940000
        29         1      24.000000       4.000000       0.000000       0.000000         1       0.963216      12.885420     138.000000         1       1.060000       0.940000
        30         1       0.000000       0.000000       0.000000       0.000000         1       0.985333      19.033753     345.000000         1       1.060000       0.940000
        31         2      43.000000      27.000000       0.000000       0.000000         1       0.967000      13.001899     138.000000         1       1.060000       0.940000
        32         2      59.000000      23.000000       0.000000       0.000000         1       0.963000      15.060641     138.000000         1       1.060000       0.940000
        33         1      23.000000       9.000000       0.000000       0.000000         1       0.970934      10.853773     138.000000         1       1.060000       0.940000
        34         2      59.000000      26.000000       0.000000      14.000000         1       0.984000      11.511416     138.000000         1       1.060000       0.940000
        35         1      33.000000       9.000000       0.000000       0.000000         1       0.980452      11.055050     138.000000         1       1.060000       0.940000
        36         2      31.000000      17.000000       0.000000       0.000000         1       0.980000      11.055512     138.000000         1       1.060000       0.940000
        37         1       0.000000       0.000000       0.000000     -25.000000         1       0.990661      11.966679     138.000000         1       1.060000       0.940000
        38         1       0.000000       0.000000       0.000000       0.000000         1       0.961286      17.107590     345.000000         1       1.060000       0.940000
        39         1      27.000000      11.000000       0.000000       0.000000         1       0.969961       8.576584     138.000000         1       1.060000       0.940000
        40         2      66.000000      23.000000       0.000000       0.000000         1       0.970000       7.495505     138.000000         1       1.060000       0.940000
        41         1      37.000000      10.000000       0.000000       0.000000         1       0.966832       7.051551     138.000000         1       1.060000       0.940000
        42         2      96.000000      23.000000       0.000000       0.000000         1       0.985000       8.652890     138.000000         1       1.060000       0.940000
        43         1      18.000000       7.000000       0.000000       0.000000         1       0.977121      11.460359     138.000000         1       1.060000       0.940000
        44         1      16.000000       8.000000       0.000000      10.000000         1       0.984436      13.943280     138.000000         1       1.060000       0.940000
        45         1      53.000000      22.000000       0.000000      10.000000         1       0.986383      15.772584     138.000000         1       1.060000       0.940000
        46         2      28.000000      10.000000       0.000000      10.000000         1       1.005000      18.575733     138.000000         1       1.060000       0.940000
        47         1      34.000000       0.000000       0.000000       0.000000         1       1.017052      20.799125     138.000000         1       1.060000       0.940000
        48         1      20.000000      11.000000       0.000000      15.000000         1       1.020633      20.018503     138.000000         1       1.060000       0.940000
        49         2      87.000000      30.000000       0.000000       0.000000         1       1.025000      21.021613     138.000000         1       1.060000       0.940000
        50         1      17.000000       4.000000       0.000000       0.000000         1       1.001083      18.982855     138.000000         1       1.060000       0.940000
        51         1      17.000000       8.000000       0.000000       0.000000         1       0.966877      16.364183     138.000000         1       1.060000       0.940000
        52         1      18.000000       5.000000       0.000000       0.000000         1       0.956818      15.410851     138.000000         1       1.060000       0.940000
        53         1      23.000000      11.000000       0.000000       0.000000         1       0.945983      14.436149     138.000000         1       1.060000       0.940000
        54         2     113.000000      32.000000       0.000000       0.000000         1       0.955000      15.348053     138.000000         1       1.060000       0.940000
        55         2      63.000000      22.000000       0.000000       0.000000         1       0.952000      15.058217     138.000000         1       1.060000       0.940000
        56         2      84.000000      18.000000       0.000000       0.000000         1       0.954000      15.244870     138.000000         1       1.060000       0.940000
        57         1      12.000000       3.000000       0.000000       0.000000         1       0.970583      16.449231     138.000000         1       1.060000       0.940000
        58         1      12.000000       3.000000       0.000000       0.000000         1       0.959039      15.592484     138.000000         1       1.060000       0.940000
        59         2     277.000000     113.000000       0.000000       0.000000         1       0.985000      19.448465     138.000000         1       1.060000       0.940000
        60         1      78.000000       3.000000       0.000000       0.000000         1       0.993156      23.230120     138.000000         1       1.060000       0.940000
        61         2       0.000000       0.000000       0.000000       0.000000         1       0.995000      24.121486     138.000000         1       1.060000       0.940000
        62         2      77.000000      14.000000       0.000000       0.000000         1       0.998000      23.504834     138.000000         1       1.060000       0.940000
        63         1       0.000000       0.000000       0.000000       0.000000         1       0.968737      22.827409     345.000000         1       1.060000       0.940000
        64         1       0.000000       0.000000       0.000000       0.000000         1       0.983739      24.593361     345.000000         1       1.060000       0.940000
        65         2       0.000000       0.000000       0.000000       0.000000         1       1.005000      27.719103     345.000000         1       1.060000       0.940000
        66         2      39.000000      18.000000       0.000000       0.000000         1       1.050000      27.558679     138.000000         1       1.060000       0.940000
        67         1      28.000000       7.000000       0.000000       0.000000         1       1.019682      24.918966     138.000000         1       1.060000       0.940000
        68         1       0.000000       0.000000       0.000000       0.000000         1       1.003249      27.597833     345.000000         1       1.060000       0.940000
        69         3       0.000000       0.000000       0.000000       0.000000         1       1.035000      30.000000     138.000000         1       1.060000       0.940000
        70         2      66.000000      20.000000       0.000000       0.000000         1       0.984000      22.617920     138.000000         1       1.060000       0.940000
        71         1       0.000000       0.000000       0.000000       0.000000         1       0.986845      22.206903     138.000000         1       1.060000       0.940000
        72         2      12.000000       0.000000       0.000000       0.000000         1       0.980000      21.108561     138.000000         1       1.060000       0.940000
        73         2       6.000000       0.000000       0.000000       0.000000         1       0.991000      21.995409     138.000000         1       1.060000       0.940000
        74         2      68.000000      27.000000       0.000000      12.000000         1       0.958000      21.668562     138.000000         1       1.060000       0.940000
        75         1      47.000000      11.000000       0.000000       0.000000         1       0.967332      22.930211     138.000000         1       1.060000       0.940000
        76         2      68.000000      36.000000       0.000000       0.000000         1       0.943000      21.798787     138.000000         1       1.060000       0.940000
        77         2      61.000000      28.000000       0.000000       0.000000         1       1.006000      26.750637     138.000000         1       1.060000       0.940000
        78         1      71.000000      26.000000       0.000000       0.000000         1       1.003424      26.446613     138.000000         1       1.060000       0.940000
        79         1      39.000000      32.000000       0.000000      20.000000         1       1.009223      26.745437     138.000000         1       1.060000       0.940000
        80         2     130.000000      26.000000       0.000000       0.000000         1       1.040000      28.990069     138.000000         1       1.060000       0.940000
        81         1       0.000000       0.000000       0.000000       0.000000         1       0.996807      28.144890     345.000000         1       1.060000       0.940000
        82         1      54.000000      27.000000       0.000000      20.000000         1       0.988545      27.271737     138.000000         1       1.060000       0.940000
        83         1      20.000000      10.000000       0.000000      10.000000         1       0.984377      28.463946     138.000000         1       1.060000       0.940000
        84         1      11.000000       7.000000       0.000000       0.000000         1       0.979704      31.000309     138.000000         1       1.060000       0.940000
        85         2      24.000000      15.000000       0.000000       0.000000         1       0.985000      32.555621     138.000000         1       1.060000       0.940000
        86         1      21.000000      10.000000       0.000000       0.000000         1       0.986691      31.186173     138.000000         1       1.060000       0.940000
        87         2       0.000000       0.000000       0.000000       0.000000         1       1.015000      31.445385     161.000000         1       1.060000       0.940000
        88         1      48.000000      10.000000       0.000000       0.000000         1       0.987453      35.690351     138.000000         1       1.060000       0.940000
        89         2       0.000000       0.000000       0.000000       0.000000         1       1.005000      39.748343     138.000000         1       1.060000       0.940000
        90         2     163.000000      42.000000       0.000000       0.000000         1       0.985000      33.338370     138.000000         1       1.060000       0.940000
        91         2      10.000000       0.000000       0.000000       0.000000         1       0.980000      33.350635     138.000000         1       1.060000       0.940000
        92         2      65.000000      10.000000       0.000000       0.000000         1       0.990000      33.880799     138.000000         1       1.060000       0.940000
        93         1      12.000000       7.000000       0.000000       0.000000         1       0.985433      30.849095     138.000000         1       1.060000       0.940000
        94         1      30.000000      16.000000       0.000000       0.000000         1       0.989830      28.682205     138.000000         1       1.060000       0.940000
        95         1      42.000000      31.000000       0.000000       0.000000         1       0.980332      27.709556     138.000000         1       1.060000       0.940000
        96         1      38.000000      15.000000       0.000000       0.000000         1       0.992283      27.542586     138.000000         1       1.060000       0.940000
        97         1      15.000000       9.000000       0.000000       0.000000         1       1.011166      27.915843     138.000000         1       1.060000       0.940000
        98         1      34.000000       8.000000       0.000000       0.000000         1       1.023509      27.433349     138.000000         1       1.060000       0.940000
        99         2      42.000000       0.000000       0.000000       0.000000         1       1.010000      27.066767     138.000000         1       1.060000       0.940000
       100         2      37.000000      18.000000       0.000000       0.000000         1       1.017000      28.058842     138.000000         1       1.060000       0.940000
       101         1      22.000000      15.000000       0.000000       0.000000         1       0.991420      29.646882     138.000000         1       1.060000       0.940000
       102         1       5.000000       3.000000       0.000000       0.000000         1       0.989131      32.364986     138.000000         1       1.060000       0.940000
       103         2      23.000000      16.000000       0.000000       0.000000         1       1.010000      24.317752     138.000000         1       1.060000       0.940000
       104         2      38.000000      25.000000       0.000000       0.000000         1       0.971000      21.747767     138.000000         1       1.060000       0.940000
       105         2      31.000000      26.000000       0.000000      20.000000         1       0.965000      20.643565     138.000000         1       1.060000       0.940000
       106         1      43.000000      16.000000       0.000000       0.000000         1       0.961146      20.383404     138.000000         1       1.060000       0.940000
       107         2      50.000000      12.000000       0.000000       6.000000         1       0.952000      17.582668     138.000000         1       1.060000       0.940000
       108         1       2.000000       1.000000       0.000000       0.000000         1       0.966212      19.443485     138.000000         1       1.060000       0.940000
       109         1       8.000000       3.000000       0.000000       0.000000         1       0.967026      18.990886     138.000000         1       1.060000       0.940000
       110         2      39.000000      30.000000       0.000000       6.000000         1       0.973000      18.144027     138.000000         1       1.060000       0.940000
       111         2       0.000000       0.000000       0.000000       0.000000         1       0.980000      19.789108     138.000000         1       1.060000       0.940000
       112         2      68.000000      13.000000       0.000000       0.000000         1       0.975000      15.044809     138.000000         1       1.060000       0.940000
       113         2       6.000000       0.000000       0.000000       0.000000         1       0.993000      13.992582     138.000000         1       1.060000       0.940000
       114         1       8.000000       3.000000       0.000000       0.000000         1       0.960093      14.726406     138.000000         1       1.060000       0.940000
       115         1      22.000000       7.000000       0.000000       0.000000         1       0.960023      14.718126     138.000000         1       1.060000       0.940000
       116         2     184.000000       0.000000       0.000000       0.000000         1       1.005000      27.162845     138.000000         1       1.060000       0.940000
       117         1      20.000000       8.000000       0.000000       0.000000         1       0.973824      10.947912     138.000000         1       1.060000       0.940000
       118         1      33.000000      15.000000       0.000000       0.000000         1       0.949438      21.941867     138.000000         1       1.060000       0.940000
mpc.bus.end

# generator data: bus	Pg	Qg	Qmax	Qmin	Vg	mBase	status	Pmax	Pmin	Pc1	Pc2	Qc1min	Qc1max	Qc2min	Qc2max	ramp_agc	ramp_10	ramp_30	ramp_q	apf
mpc.gen
         1       0.000000      -3.104097      15.000000      -5.000000       0.955000     100.000000         1     100.000000       0.000000       0.000000       0.000000       0.000000       0.000000       0.000000       0.000000       0.000000       0.000000       0.000000       0.000000       0.000000
         4       0.000000     -15.009647     300.000000    -300.000000       0.998000     100.000000         1     100.000000       0.000000       0.000000       0.000000       0.000000       0.000000       0.000000       0.000000       0.000000       0.000000       0.000000       0.000000       0.000000
         6       0.000000      15.929766      50.000000     -13.000000       0.990000     100.000000         1     100.000000       0.000000       0.000000       0.000000       0.000000       0.000000       0.000000       0.000000       0.000000       0.000000       0.000000       0.000000       0.000000
         8       0.000000      63.138444     300.000000    -300.000000       1.015000     100.000000         1     100.000000       0.000000       0.000000       0.000000       0.000000       0.000000       0.000000       0.000000       0.000000       0.000000       0.000000       0.000000       0.000000
        10     450.000000     -51.042152     200.000000    -147.000000       1.050000     100.000000         1     550.000000       0.000000       0.000000       0.000000       0.000000       0.000000       0.000000       0.000000       0.000000       0.000000       0.000000       0.000000       0.000000
        12      85.000000      91.291736     120.000000     -35.000000       0.990000     100.000000         1     185.000000       0.000000       0.000000       0.000000       0.000000       0.000000       0.000000       0.000000       0.000000       0.000000       0.000000       0.000000       0.000000
        15       0.000000       7.160454      30.000000     -10.000000       0.970000     100.000000         1     100.000000       0.000000       0.000000       0.000000       0.000000       0.000000       0.000000       0.000000       0.000000       0.000000       0.000000       0.000000       0.000000
        18       0.000000      28.426324      50.000000     -16.000000       0.973000     100.000000         1     100.000000       0.000000       0.000000       0.000000       0.000000       0.000000       0.000000       0.000000       0.000000       0.000000       0.000000       0.000000       0.000000
        19       0.000000     -14.274172      24.000000      -8.000000       0.962000     100.000000         1     100.000000       0.000000       0.000000       0.000000       0.000000       0.000000       0.000000       0.000000       0.000000       0.000000       0.000000       0.000000       0.000000
        24       0.000000     -14.907621     300.000000    -300.000000       0.992000     100.000000         1     100.000000       0.000000       0.000000       0.000000       0.000000       0.000000       0.000000       0.000000       0.000000       0.000000       0.000000       0.000000       0.000000
        25     220.000000      50.043257     140.000000     -47.000000       1.050000     100.000000         1     320.000000       0.000000       0.000000       0.000000       0.000000       0.000000       0.000000       0.000000       0.000000       0.000000       0.000000       0.000000       0.000000
        26     314.000000      10.124724    1000.000000   -1000.000000       1.015000     100.000000         1     414.000000       0.000000       0.000000       0.000000       0.000000       0.000000       0.000000       0.000000       0.000000       0.000000       0.000000       0.000000       0.000000
        27       0.000000       3.982350     300.000000    -300.000000       0.968000     100.000000         1     100.000000       0.000000       0.000000       0.000000       0.000000       0.000000       0.000000       0.000000       0.000000       0.000000       0.000000       0.000000       0.000000
        31       7.000000      32.586014     300.000000    -300.000000       0.967000     100.000000         1     107.000000       0.000000       0.000000       0.000000       0.000000       0.000000       0.000000       0.000000       0.000000       0.000000       0.000000       0.000000       0.000000
        32       0.000000     -16.284775      42.000000     -14.000000       0.963000     100.000000         1     100.000000       0.000000       0.000000       0.000000       0.000000       0.000000       0.000000       0.000000       0.000000       0.000000       0.000000       0.000000       0.000000
        34       0.000000     -20.827112      24.000000      -8.000000       0.984000     100.000000         1     100.000000       0.000000       0.000000       0.000000       0.000000       0.000000       0.000000       0.000000       0.000000       0.000000       0.000000       0.000000       0.000000
        36       0.000000       7.725079      24.000000      -8.000000       0.980000     100.000000         1     100.000000       0.000000       0.000000       0.000000       0.000000       0.000000       0.000000       0.000000       0.000000       0.000000       0.000000       0.000000       0.000000
        40       0.000000      28.454070     300.000000    -300.000000       0.970000     100.000000         1     100.000000       0.000000       0.000000       0.000000       0.000000       0.000000       0.000000       0.000000       0.000000       0.000000       0.000000       0.000000       0.000000
        42       0.000000      41.029575     300.000000    -300.000000       0.985000     100.000000         1     100.000000       0.000000       0.000000       0.000000       0.000000       0.000000       0.000000       0.000000       0.000000       0.000000       0.000000       0.000000       0.000000
        46      19.000000      -5.029457     100.000000    -100.000000       1.005000     100.000000         1     119.000000       0.000000       0.000000       0.000000       0.000000       0.000000       0.000000       0.000000       0.000000       0.000000       0.000000       0.000000       0.000000
        49     204.000000     115.845130     210.000000     -85.000000       1.025000     100.000000         1     304.000000       0.000000       0.000000       0.000000       0.000000       0.000000       0.000000       0.000000       0.000000       0.000000       0.000000       0.000000       0.000000
        54      48.000000       3.901064     300.000000    -300.000000       0.955000     100.000000         1     148.000000       0.000000       0.000000       0.000000       0.000000       0.000000       0.000000       0.000000       0.000000       0.000000       0.000000       0.000000       0.000000
        55       0.000000       4.664172      23.000000      -8.000000       0.952000     100.000000         1     100.000000       0.000000       0.000000       0.000000       0.000000       0.000000       0.000000       0.000000       0.000000       0.000000       0.000000       0.000000       0.000000
        56       0.000000      -2.285749      15.000000      -8.000000       0.954000     100.000000         1     100.000000       0.000000       0.000000       0.000000       0.000000       0.000000       0.000000       0.000000       0.000000       0.000000       0.000000       0.000000       0.000000
        59     155.000000      76.833952     180.000000     -60.000000       0.985000     100.000000         1     255.000000       0.000000       0.000000       0.000000       0.000000       0.000000       0.000000       0.000000       0.000000       0.000000       0.000000       0.000000       0.000000
        61     160.000000     -40.394012     300.000000    -100.000000       0.995000     100.000000         1     260.000000       0.000000       0.000000       0.000000       0.000000       0.000000       0.000000       0.000000       0.000000       0.000000       0.000000       0.000000       0.000000
        62       0.000000       1.258373      20.000000     -20.000000       0.998000     100.000000         1     100.000000       0.000000       0.000000       0.000000       0.000000       0.000000       0.000000       0.000000       0.000000       0.000000       0.000000       0.000000       0.000000
        65     391.000000      81.510159     200.000000     -67.000000       1.005000     100.000000         1     491.000000       0.000000       0.000000       0.000000       0.000000       0.000000       0.000000       0.000000       0.000000       0.000000       0.000000       0.000000       0.000000
        66     392.000000      -1.956587     200.000000     -67.000000       1.050000     100.000000         1     492.000000       0.000000       0.000000       0.000000       0.000000       0.000000       0.000000       0.000000       0.000000       0.000000       0.000000       0.000000       0.000000