# Imported from MATPOWER Case Format
mpc.version
2
mpc.version.end

# System MVA base
mpc.baseMVA
100
mpc.baseMVA.end

# Bus data: bus_i	type	Pd	Qd	Gs	Bs	area	Vm	Va	baseKV	zone	Vmax	Vmin
mpc.bus
         1         1      97.600000      44.200000       0.000000       0.000000         2       1.039384     -13.536602     345.000000         1       1.060000       0.940000
         2         1       0.000000       0.000000       0.000000       0.000000         2       1.048494      -9.785267     345.000000         1       1.060000       0.940000
         3         1     322.000000       2.400000       0.000000       0.000000         2       1.030708     -12.276384     345.000000         1       1.060000       0.940000
         4         1     500.000000     184.000000       0.000000       0.000000         1       1.004460     -12.626734     345.000000         1       1.060000       0.940000
         5         1       0.000000       0.000000       0.000000       0.000000         1       1.006006     -11.192339     345.000000         1       1.060000       0.940000
         6         1       0.000000       0.000000       0.000000       0.000000         1       1.008226     -10.408330     345.000000         1       1.060000       0.940000
         7         1     233.800000      84.000000       0.000000       0.000000         1       0.998397     -12.755626     345.000000         1       1.060000       0.940000
         8         1     522.000000     176.600000       0.000000       0.000000         1       0.997872     -13.335844     345.000000         1       1.060000       0.940000
         9         1       6.500000     -66.600000       0.000000       0.000000         1       1.038332     -14.178442     345.000000         1       1.060000       0.940000
        10         1       0.000000       0.000000       0.000000       0.000000         1       1.017843      -8.170875     345.000000         1       1.060000       0.940000
        11         1       0.000000       0.000000       0.000000       0.000000         1       1.013386      -8.936966     345.000000         1       1.060000       0.940000
        12         1       8.530000      88.000000       0.000000       0.000000         1       1.000815      -8.998824     345.000000         1       1.060000       0.940000
        13         1       0.000000       0.000000       0.000000       0.000000         1       1.014923      -8.929927     345.000000         1       1.060000       0.940000
        14         1       0.000000       0.000000       0.000000       0.000000         1       1.012319     -10.715295     345.000000         1       1.060000       0.940000
        15         1     320.000000     153.000000       0.000000       0.000000         3       1.016185     -11.345399     345.000000         1       1.060000       0.940000
        16         1     329.000000      32.300000       0.000000       0.000000         3       1.032520     -10.033348     345.000000         1       1.060000       0.940000
        17         1       0.000000       0.000000       0.000000       0.000000         2       1.034237     -11.116436     345.000000         1       1.060000       0.940000
        18         1     158.000000      30.000000       0.000000       0.000000         2       1.031573     -11.986168     345.000000         1       1.060000       0.940000
        19         1       0.000000       0.000000       0.000000       0.000000         3       1.050107      -5.410073     345.000000         1       1.060000       0.940000
        20         1     680.000000     103.000000       0.000000       0.000000         3       0.991011      -6.821178     345.000000         1       1.060000       0.940000
        21         1     274.000000     115.000000       0.000000       0.000000         3       1.032319      -7.628746     345.000000         1       1.060000       0.940000
        22         1       0.000000       0.000000       0.000000       0.000000         3       1.050143      -3.183120     345.000000         1       1.060000       0.940000
        23         1     247.500000      84.600000       0.000000       0.000000         3       1.045145      -3.381276     345.000000         1       1.060000       0.940000
        24         1     308.600000     -92.200000       0.000000       0.000000         3       1.038001      -9.913759     345.000000         1       1.060000       0.940000
        25         1     224.000000      47.200000       0.000000       0.000000         2       1.057683      -8.369235     345.000000         1       1.060000       0.940000
        26         1     139.000000      17.000000       0.000000       0.000000         2       1.052561      -9.438770     345.000000         1       1.060000       0.940000
        27         1     281.000000      75.500000       0.000000       0.000000         2       1.038345     -11.362152     345.000000         1       1.060000       0.940000
        28         1     206.000000      27.600000       0.000000       0.000000         3       1.050374      -5.928359     345.000000         1       1.060000       0.940000
        29         1     283.500000      26.900000       0.000000       0.000000         3       1.050115      -3.169874     345.000000         1       1.060000       0.940000
        30         2       0.000000       0.000000       0.000000       0.000000         2       1.049900      -7.370475     345.000000         1       1.060000       0.940000
        31         3       9.200000       4.600000       0.000000       0.000000         1       0.982000       0.000000     345.000000         1       1.060000       0.940000
        32         2       0.000000       0.000000       0.000000       0.000000         1       0.984100      -0.188437     345.000000         1       1.060000       0.940000
        33         2       0.000000       0.000000       0.000000       0.000000         3       0.997200      -0.193174     345.000000         1       1.060000       0.940000
        34         2       0.000000       0.000000       0.000000       0.000000         3       1.012300      -1.631119     345.000000         1       1.060000       0.940000
        35         2       0.000000       0.000000       0.000000       0.000000         3       1.049400       1.776507     345.000000         1       1.060000       0.940000
        36         2       0.000000       0.000000       0.000000       0.000000         3       1.063600       4.468437     345.000000         1       1.060000       0.940000
        37         2       0.000000       0.000000       0.000000       0.000000         2       1.027500      -1.582899     345.000000         1       1.060000       0.940000
        38         2       0.000000       0.000000       0.000000       0.000000         3       1.026500       3.892818     345.000000         1       1.060000       0.940000
        39         2    1104.000000     250.000000       0.000000       0.000000         1       1.030000     -14.535256     345.000000         1       1.060000       0.940000
mpc.bus.end

# generator data: bus	Pg	Qg	Qmax	Qmin	Vg	mBase	status	Pmax	Pmin	Pc1	Pc2	Qc1min	Qc1max	Qc2min	Qc2max	ramp_agc	ramp_10	ramp_30	ramp_q	apf
mpc.gen
        30     250.000000     161.761648     400.000000     140.000000       1.049900     100.000000         1    1040.000000       0.000000       0.000000       0.000000       0.000000       0.000000       0.000000       0.000000       0.000000       0.000000       0.000000       0.000000       0.000000
        31     677.871126     221.574486     300.000000    -100.000000       0.982000     100.000000         1     646.000000       0.000000       0.000000       0.000000       0.000000       0.000000       0.000000       0.000000       0.000000       0.000000       0.000000       0.000000       0.000000
        32     650.000000     206.964855     300.000000     150.000000       0.984100     100.000000         1     725.000000       0.000000       0.000000       0.000000       0.000000       0.000000       0.000000       0.000000       0.000000       0.000000       0.000000       0.000000       0.000000
        33     632.000000     108.292787     250.000000       0.000000       0.997200     100.000000         1     652.000000       0.000000       0.000000       0.000000       0.000000       0.000000       0.000000       0.000000       0.000000       0.000000       0.000000       0.000000       0.000000
        34     508.000000     166.688370     167.000000       0.000000       1.012300     100.000000         1     508.000000       0.000000       0.000000       0.000000       0.000000       0.000000       0.000000       0.000000       0.000000       0.000000       0.000000       0.000000       0.000000
        35     650.000000     210.661384     300.000000    -100.000000       1.049400     100.000000         1     687.000000       0.000000       0.000000       0.000000       0.000000       0.000000       0.000000       0.000000       0.000000       0.000000       0.000000       0.000000       0.000000
        36     560.000000     100.164792     240.000000       0.000000       1.063600     100.000000         1     580.000000       0.000000       0.000000       0.000000       0.000000       0.000000       0.000000       0.000000       0.000000       0.000000       0.000000       0.000000       0.000000
        37     540.000000      -1.369447     250.000000       0.000000       1.027500     100.000000         1     564.000000       0.000000       0.000000       0.000000       0.000000       0.000000       0.000000       0.000000       0.000000       0.000000       0.000000       0.000000       0.000000
        38     830.000000      21.732729     300.000000    -150.000000       1.026500     100.000000         1     865.000000       0.000000       0.000000       0.000000       0.000000       0.000000       0.000000       0.000000       0.000000       0.000000       0.000000       0.000000       0.000000
        39    1000.000000      78.467359     300.000000    -100.000000       1.030000     100.000000         1    1100.000000       0.000000       0.000000       0.000000       0.000000       0.000000       0.000000       0.000000       0.000000       0.000000       0.000000       0.000000       0.000000
mpc.gen.end

# branch data: fbus	tbus	r	x	b	rateA	rateB	rateC	ratio	angle	status	angmin	angmax PF* QF* PT* QT*
mpc.branch
         1         2       0.003500       0.041100       0.698700     600.000000     600.000000     600.000000       0.000000       0.000000         1    -360.000000     360.000000    -173.699968     -40.307333     174.677679     -24.357906
         1        39       0.001000       0.025000       0.750000    1000.000000    1000.000000    1000.000000       0.000000       0.000000         1    -360.000000     360.000000      76.099968      -3.892667     -76.033949     -74.752542
         2         3       0.001300       0.015100       0.257200     500.000000     500.000000     500.000000       0.000000       0.000000         1    -360.000000     360.000000     319.914587      88.586564    -318.579542    -100.878940
         2        25       0.007000       0.008600       0.146000     500.000000     500.000000     500.000000       0.000000       0.000000         1    -360.000000     360.000000    -244.592267      82.973576     248.928897     -93.837355
         2        30       0.000000       0.018100       0.000000     900.000000     900.000000    2500.000000       1.025000       0.000000         1    -360.000000     360.000000    -250.000000    -147.202234     250.000000     161.761648
         3         4       0.001300       0.021300       0.221400     500.000000     500.000000     500.000000       0.000000       0.000000         1    -360.000000     360.000000      37.339618     113.064517     -37.131890    -132.590249
         3        18       0.001100       0.013300       0.213800     500.000000     500.000000     500.000000       0.000000       0.000000         1    -360.000000     360.000000     -40.760076     -14.585578      40.777386      -7.937413
         4         5       0.000800       0.012800       0.134200     600.000000     600.000000     600.000000       0.000000       0.000000         1    -360.000000     360.000000    -197.449493      -4.089870     197.758677      -4.524021
         4        14       0.000800       0.012900       0.138200     500.000000     500.000000     500.000000       0.000000       0.000000         1    -360.000000     360.000000    -265.418617     -47.319880     265.990108      42.482103
         5         6       0.000200       0.002600       0.043400    1200.000000    1200.000000    1200.000000       0.000000       0.000000         1    -360.000000     360.000000    -536.936553     -43.112383     537.509599      46.159984
         5         8       0.000800       0.011200       0.147600     900.000000     900.000000     900.000000       0.000000       0.000000         1    -360.000000     360.000000     339.177876      47.636403    -338.244496     -49.386632
         6         7       0.000600       0.009200       0.113000     900.000000     900.000000     900.000000       0.000000       0.000000         1    -360.000000     360.000000     453.815603      81.548655    -452.555016     -73.594881
         6        11       0.000700       0.008200       0.138900     480.000000     480.000000     480.000000       0.000000       0.000000         1    -360.000000     360.000000    -322.654076     -38.854733     323.377935      33.142325
         6        31       0.000000       0.025000       0.000000    1800.000000    1800.000000    1800.000000       1.070000       0.000000         1    -360.000000     360.000000    -668.671126     -88.853906     668.671126     216.974486
         7         8       0.000400       0.004600       0.078000     900.000000     900.000000     900.000000       0.000000       0.000000         1    -360.000000     360.000000     218.755016     -10.405119    -218.562815       4.844495
         8         9       0.002300       0.036300       0.380400     900.000000     900.000000     900.000000       0.000000       0.000000         1    -360.000000     360.000000      34.807312    -132.057863     -34.483766      97.719009
         9        39       0.001000       0.025000       1.200000     900.000000     900.000000     900.000000       0.000000       0.000000         1    -360.000000     360.000000      27.983766     -31.119009     -27.966051     -96.780099
        10        11       0.000400       0.004300       0.072900     600.000000     600.000000     600.000000       0.000000       0.000000         1    -360.000000     360.000000     327.901325      73.374434    -327.463213     -76.184203
        10        13       0.000400       0.004300       0.072900     600.000000     600.000000     600.000000       0.000000       0.000000         1    -360.000000     360.000000     322.098675      37.491892    -321.691531     -40.645937
        10        32       0.000000       0.020000       0.000000     900.000000     900.000000    2500.000000       1.070000       0.000000         1    -360.000000     360.000000    -650.000000    -110.866326     650.000000     206.964855
        12        11       0.001600       0.043500       0.000000     500.000000     500.000000     500.000000       1.006000       0.000000         1    -360.000000     360.000000      -4.056155     -42.250075       4.085278      43.041878
        12        13       0.001600       0.043500       0.000000     500.000000     500.000000     500.000000       1.006000       0.000000         1    -360.000000     360.000000      -4.473845     -45.749925       4.508006      46.678659
        13        14       0.000900       0.010100       0.172300     600.000000     600.000000     600.000000       0.000000       0.000000         1    -360.000000     360.000000     317.183526      -6.032722    -316.304437      -1.804560
        14        15       0.001800       0.021700       0.366000     600.000000     600.000000     600.000000       0.000000       0.000000         1    -360.000000     360.000000      50.314329     -40.677543     -50.261421       3.664547
        15        16       0.000900       0.009400       0.171000     600.000000     600.000000     600.000000       0.000000       0.000000         1    -360.000000     360.000000    -269.738579    -156.664547     270.563198     147.333083
        16        17       0.000700       0.008900       0.134200     600.000000     600.000000     600.000000       0.000000       0.000000         1    -360.000000     360.000000     224.017064     -42.539912    -223.679337      32.503042
        16        19       0.001600       0.019500       0.304000     600.000000     600.000000    2500.000000       0.000000       0.000000         1    -360.000000     360.000000    -451.298541     -54.203176     454.376895      58.754526
        16        21       0.000800       0.013500       0.254800     600.000000     600.000000     600.000000       0.000000       0.000000         1    -360.000000     360.000000    -329.601665      14.440022     330.422772     -27.742741
        16        24       0.000300       0.005900       0.068000     600.000000     600.000000     600.000000       0.000000       0.000000         1    -360.000000     360.000000     -42.680056     -97.330017      42.709890      90.628717
        17        18       0.000700       0.008200       0.131900     600.000000     600.000000     600.000000       0.000000       0.000000         1    -360.000000     360.000000     199.038791      11.052428    -198.777386     -22.062587
        17        27       0.001300       0.017300       0.321600     600.000000     600.000000     600.000000       0.000000       0.000000         1    -360.000000     360.000000      24.640546     -43.555470     -24.624725       9.229304
        19        20       0.000700       0.013800       0.000000     900.000000     900.000000    2500.000000       1.060000       0.000000         1    -360.000000     360.000000     174.728860      -9.173554    -174.510503      13.478311
        19        33       0.000700       0.014200       0.000000     900.000000     900.000000    2500.000000       1.070000       0.000000         1    -360.000000     360.000000    -629.105756     -49.580972     632.000000     108.292787
        20        34       0.000900       0.018000       0.000000     900.000000     900.000000    2500.000000       1.009000       0.000000         1    -360.000000     360.000000    -505.489497    -116.478311     508.000000     166.688370
        21        22       0.000800       0.014000       0.256500     900.000000     900.000000     900.000000       0.000000       0.000000         1    -360.000000     360.000000    -604.422772     -87.257259     607.205906     108.151323
        22        23       0.000600       0.009600       0.184600     600.000000     600.000000     600.000000       0.000000       0.000000         1    -360.000000     360.000000      42.794094      41.884254     -42.769382     -61.749908
        22        35       0.000000       0.014300       0.000000     900.000000     900.000000    2500.000000       1.025000       0.000000         1    -360.000000     360.000000    -650.000000    -150.035577     650.000000     210.661384
        23        24       0.002200       0.035000       0.361000     600.000000     600.000000     600.000000       0.000000       0.000000         1    -360.000000     360.000000     353.838954      -0.500605    -351.309890       1.571283
        23        36       0.000500       0.027200       0.000000     900.000000     900.000000    2500.000000       1.000000       0.000000         1    -360.000000     360.000000    -558.569572     -22.349487     560.000000     100.164792
        25        26       0.003200       0.032300       0.531000     600.000000     600.000000     600.000000       0.000000       0.000000         1    -360.000000     360.000000      65.413892     -18.810932     -65.288100     -39.035004
        25        37       0.000600       0.023200       0.000000     900.000000     900.000000    2500.000000       1.025000       0.000000         1    -360.000000     360.000000    -538.342789      65.448287     540.000000      -1.369447
        26        27       0.001400       0.014700       0.239600     600.000000     600.000000     600.000000       0.000000       0.000000         1    -360.000000     360.000000     257.295728      68.205232    -256.375275     -84.729304
        26        28       0.004300       0.047400       0.780200     600.000000     600.000000     600.000000       0.000000       0.000000         1    -360.000000     360.000000    -140.819246     -21.209607     141.607705     -56.356758
        26        29       0.005700       0.062500       1.029000     600.000000     600.000000     600.000000       0.000000       0.000000         1    -360.000000     360.000000    -190.188382     -24.960621     192.102205     -67.791212
        28        29       0.001400       0.015100       0.249000     600.000000     600.000000     600.000000       0.000000       0.000000         1    -360.000000     360.000000    -347.607705      28.756758     349.163889     -39.437225
        29        38       0.000800       0.015600       0.000000    1200.000000    1200.000000    2500.000000       1.025000       0.000000         1    -360.000000     360.000000    -824.766094      80.328437     830.000000      21.732729
mpc.branch.end

