# Imported from MATPOWER Case Format
mpc.version
2
mpc.version.end

# System MVA base
mpc.baseMVA
100
mpc.baseMVA.end

# Bus data: bus_i	type	Pd	Qd	Gs	Bs	area	Vm	Va	baseKV	zone	Vmax	Vmin
mpc.bus
         1         3      50.000000      30.990000       0.000000       0.000000         1       1.000000       0.000000     230.000000         1       1.100000       0.900000
         2         1     170.000000     105.350000       0.000000       0.000000         1       0.982421      -0.976122     230.000000         1       1.100000       0.900000
         3         1     200.000000     123.940000       0.000000       0.000000         1       0.969005      -1.872177     230.000000         1       1.100000       0.900000
         4         2      80.000000      49.580000       0.000000       0.000000         1       1.020000       1.523055     230.000000         1       1.100000       0.900000
mpc.bus.end

# generator data: bus	Pg	Qg	Qmax	Qmin	Vg	mBase	status	Pmax	Pmin	Pc1	Pc2	Qc1min	Qc1max	Qc2min	Qc2max	ramp_agc	ramp_10	ramp_30	ramp_q	apf
mpc.gen
         4     318.000000     181.429643     100.000000    -100.000000       1.020000     100.000000       1.000000     318.000000       0.000000       0.000000       0.000000       0.000000       0.000000       0.000000       0.000000       0.000000       0.000000       0.000000       0.000000       0.000000
         1     186.809078     114.500841     100.000000    -100.000000       1.000000     100.000000       1.000000       0.000000       0.000000       0.000000       0.000000       0.000000       0.000000       0.000000       0.000000       0.000000       0.000000       0.000000       0.000000       0.000000
mpc.gen.end

# branch data: fbus	tbus	r	x	b	rateA	rateB	rateC	ratio	angle	status	angmin	angmax PF* QF* PT* QT*
mpc.branch
         1         2       0.010080       0.050400       0.102500     250.000000     250.000000     250.000000       0.000000       0.000000         1    -360.000000     360.000000      38.691532      22.298456     -38.464825     -31.236319
         1         3       0.007440       0.037200       0.077500     250.000000     250.000000     250.000000       0.000000       0.000000         1    -360.000000     360.000000      98.117546      61.212385     -97.086107     -63.568702
         2         4       0.007440       0.037200       0.077500     250.000000     250.000000     250.000000       0.000000       0.000000         1    -360.000000     360.000000    -131.535175     -74.113681     133.250652      74.919558
         3         4       0.012720       0.063600       0.127500     250.000000     250.000000     250.000000       0.000000       0.000000         1    -360.000000     360.000000    -102.913893     -60.371298     104.749348      56.930085
mpc.branch.end

