# Imported from MATPOWER Case Format
mpc.version
2
mpc.version.end

# System MVA base
mpc.baseMVA
100
mpc.baseMVA.end

# Bus data: bus_i	type	Pd	Qd	Gs	Bs	area	Vm	Va	baseKV	zone	Vmax	Vmin
mpc.bus
         1         2     108.000000      22.000000       0.000000       0.000000         1       1.035000      -7.277918     138.000000         1       1.050000       0.950000
         2         2      97.000000      20.000000       0.000000       0.000000         1       1.035000      -7.369778     138.000000         1       1.050000       0.950000
         3         1     180.000000      37.000000       0.000000       0.000000         1       0.989378      -5.583806     138.000000         1       1.050000       0.950000
         4         1      74.000000      15.000000       0.000000       0.000000         1       0.997945      -9.689934     138.000000         1       1.050000       0.950000
         5         1      71.000000      14.000000       0.000000       0.000000         1       1.018532      -9.963981     138.000000         1       1.050000       0.950000
         6         1     136.000000      28.000000       0.000000    -100.000000         2       1.012401     -12.420710     138.000000         1       1.050000       0.950000
         7         2     125.000000      25.000000       0.000000       0.000000         2       1.025000      -7.357475     138.000000         1       1.050000       0.950000
         8         1     171.000000      35.000000       0.000000       0.000000         2       0.992665     -11.088141     138.000000         1       1.050000       0.950000
         9         1     175.000000      36.000000       0.000000       0.000000         1       1.001335      -7.434930     138.000000         1       1.050000       0.950000
        10         1     195.000000      40.000000       0.000000       0.000000         2       1.028459      -9.502835     138.000000         1       1.050000       0.950000
        11         1       0.000000       0.000000       0.000000       0.000000         3       0.989894      -2.154075     230.000000         1       1.050000       0.950000
        12         1       0.000000       0.000000       0.000000       0.000000         3       1.002532      -1.517462     230.000000         1       1.050000       0.950000
        13         3     265.000000      54.000000       0.000000       0.000000         3       1.020000       0.000000     230.000000         1       1.050000       0.950000
        14         2     194.000000      39.000000       0.000000       0.000000         3       0.980000       2.258443     230.000000         1       1.050000       0.950000
        15         2     317.000000      64.000000       0.000000       0.000000         4       1.014000      11.565798     230.000000         1       1.050000       0.950000
        16         2     100.000000      20.000000       0.000000       0.000000         4       1.017000      10.448737     230.000000         1       1.050000       0.950000
        17         1       0.000000       0.000000       0.000000       0.000000         4       1.038552      14.931312     230.000000         1       1.050000       0.950000
        18         2     333.000000      68.000000       0.000000       0.000000         4       1.050000      16.291874     230.000000         1       1.050000       0.950000
        19         1     181.000000      37.000000       0.000000       0.000000         3       1.023248       8.917421     230.000000         1       1.050000       0.950000
        20         1     128.000000      26.000000       0.000000       0.000000         3       1.038490       9.529649     230.000000         1       1.050000       0.950000
        21         2       0.000000       0.000000       0.000000       0.000000         4       1.050000      17.117324     230.000000         1       1.050000       0.950000
        22         2       0.000000       0.000000       0.000000       0.000000         4       1.050000      22.765942     230.000000         1       1.050000       0.950000
        23         2       0.000000       0.000000       0.000000       0.000000         3       1.050000      10.572266     230.000000         1       1.050000       0.950000
        24         1       0.000000       0.000000       0.000000       0.000000         4       0.977862       5.299185     230.000000         1       1.050000       0.950000
mpc.bus.end

# generator data: bus	Pg	Qg	Qmax	Qmin	Vg	mBase	status	Pmax	Pmin	Pc1	Pc2	Qc1min	Qc1max	Qc2min	Qc2max	ramp_agc	ramp_10	ramp_30	ramp_q	apf
mpc.gen
         1      10.000000       5.497982      10.000000       0.000000       1.035000     100.000000         1      20.000000      16.000000       0.000000       0.000000       0.000000       0.000000       0.000000       0.000000       0.000000       0.000000       0.000000       0.000000       0.000000
         1      10.000000       5.497982      10.000000       0.000000       1.035000     100.000000         1      20.000000      16.000000       0.000000       0.000000       0.000000       0.000000       0.000000       0.000000       0.000000       0.000000       0.000000       0.000000       0.000000
         1      76.000000       5.238898      30.000000     -25.000000       1.035000     100.000000         1      76.000000      15.200000       0.000000       0.000000       0.000000       0.000000       0.000000       0.000000       0.000000       0.000000       0.000000       0.000000       0.000000
         1      76.000000       5.238898      30.000000     -25.000000       1.035000     100.000000         1      76.000000      15.200000       0.000000       0.000000       0.000000       0.000000       0.000000       0.000000       0.000000       0.000000       0.000000       0.000000       0.000000
         2      10.000000       5.050638      10.000000       0.000000       1.035000     100.000000         1      20.000000      16.000000       0.000000       0.000000       0.000000       0.000000       0.000000       0.000000       0.000000       0.000000       0.000000       0.000000       0.000000
         2      10.000000       5.050638      10.000000       0.000000       1.035000     100.000000         1      20.000000      16.000000       0.000000       0.000000       0.000000       0.000000       0.000000       0.000000       0.000000       0.000000       0.000000       0.000000       0.000000
         2      76.000000       2.778511      30.000000     -25.000000       1.035000     100.000000         1      76.000000      15.200000       0.000000       0.000000       0.000000       0.000000       0.000000       0.000000       0.000000       0.000000       0.000000       0.000000       0.000000
         2      76.000000       2.778511      30.000000     -25.000000       1.035000     100.000000         1      76.000000      15.200000       0.000000       0.000000       0.000000       0.000000       0.000000       0.000000       0.000000       0.000000       0.000000       0.000000       0.000000
         7      80.000000      17.279869      60.000000       0.000000       1.025000     100.000000         1     100.000000      25.000000       0.000000       0.000000       0.000000       0.000000       0.000000       0.000000       0.000000       0.000000       0.000000       0.000000       0.000000
         7      80.000000      17.279869      60.000000       0.000000       1.025000     100.000000         1     100.000000      25.000000       0.000000       0.000000       0.000000       0.000000       0.000000       0.000000       0.000000       0.000000       0.000000       0.000000       0.000000
         7      80.000000      17.279869      60.000000       0.000000       1.025000     100.000000         1     100.000000      25.000000       0.000000       0.000000       0.000000       0.000000       0.000000       0.000000       0.000000       0.000000       0.000000       0.000000       0.000000
        13      -2.953585      44.663844      80.000000       0.000000       1.020000     100.000000         1     197.000000      69.000000       0.000000       0.000000       0.000000       0.000000       0.000000       0.000000       0.000000       0.000000       0.000000       0.000000       0.000000
        13      95.100000      44.663844      80.000000       0.000000       1.020000     100.000000         1     197.000000      69.000000       0.000000       0.000000       0.000000       0.000000       0.000000       0.000000       0.000000       0.000000       0.000000       0.000000       0.000000
        13      95.100000      44.663844      80.000000       0.000000       1.020000     100.000000         1     197.000000      69.000000       0.000000       0.000000       0.000000       0.000000       0.000000       0.000000       0.000000       0.000000       0.000000       0.000000       0.000000
        14       0.000000     -27.723980     200.000000     -50.000000       0.980000     100.000000         1       0.000000       0.000000       0.000000       0.000000       0.000000       0.000000       0.000000       0.000000       0.000000       0.000000       0.000000       0.000000       0.000000
        15      12.000000       1.726706       6.000000       0.000000       1.014000     100.000000         1      12.000000       2.400000       0.000000       0.000000       0.000000       0.000000       0.000000       0.000000       0.000000       0.000000       0.000000       0.000000       0.000000
        15      12.000000       1.726706       6.000000       0.000000       1.014000     100.000000         1      12.000000       2.400000       0.000000       0.000000       0.000000       0.000000       0.000000       0.000000       0.000000       0.000000       0.000000       0.000000       0.000000
        15      12.000000       1.726706       6.000000       0.000000       1.014000     100.000000         1      12.000000       2.400000       0.000000       0.000000       0.000000       0.000000       0.000000       0.000000       0.000000       0.000000       0.000000       0.000000       0.000000
        15      12.000000       1.726706       6.000000       0.000000       1.014000     100.000000         1      12.000000       2.400000       0.000000       0.000000       0.000000       0.000000       0.000000       0.000000       0.000000       0.000000       0.000000       0.000000       0.000000
        15      12.000000       1.726706       6.000000       0.000000       1.014000     100.000000         1      12.000000       2.400000       0.000000       0.000000       0.000000       0.000000       0.000000       0.000000       0.000000       0.000000       0.000000       0.000000       0.000000
        15     155.000000     -12.588031      80.000000     -50.000000       1.014000     100.000000         1     155.000000      54.300000       0.000000       0.000000       0.000000       0.000000       0.000000       0.000000       0.000000       0.000000       0.000000       0.000000       0.000000
        16     155.000000      44.402299      80.000000     -50.000000       1.017000     100.000000         1     155.000000      54.300000       0.000000       0.000000       0.000000       0.000000       0.000000       0.000000       0.000000       0.000000       0.000000       0.000000       0.000000
        18     400.000000     138.728651     200.000000     -50.000000       1.050000     100.000000         1     400.000000     100.000000       0.000000       0.000000       0.000000       0.000000       0.000000       0.000000       0.000000       0.000000       0.000000       0.000000       0.000000
        21     400.000000     106.905947     200.000000     -50.000000       1.050000     100.000000         1     400.000000     100.000000       0.000000       0.000000       0.000000       0.000000       0.000000       0.000000       0.000000       0.000000       0.000000       0.000000       0.000000
        22      50.000000      -4.924208      16.000000     -10.000000       1.050000     100.000000         1      50.000000      10.000000       0.000000       0.000000       0.000000       0.000000       0.000000       0.000000       0.000000       0.000000       0.000000       0.000000       0.000000
        22      50.000000      -4.924208      16.000000     -10.000000       1.050000     100.000000         1      50.000000      10.000000       0.000000       0.000000       0.000000       0.000000       0.000000       0.000000       0.000000       0.000000       0.000000       0.000000       0.000000
        22      50.000000      -4.924208      16.000000     -10.000000       1.050000     100.000000         1      50.000000      10.000000       0.000000       0.000000       0.000000       0.000000       0.000000       0.000000       0.000000       0.000000       0.000000       0.000000       0.000000
        22      50.000000      -4.924208      16.000000     -10.000000       1.050000     100.000000         1      50.000000      10.000000       0.000000       0.000000       0.000000       0.000000       0.000000       0.000000       0.000000       0.000000       0.000000       0.000000       0.000000
        22      50.000000      -4.924208      16.000000     -10.000000       1.050000     100.000000         1      50.000000      10.000000       0.000000       0.000000       0.000000       0.000000       0.000000       0.000000       0.000000       0.000000       0.000000       0.000000       0.000000
        22      50.000000      -4.924208      16.000000     -10.000000       1.050000     100.000000         1      50.000000      10.000000       0.000000       0.000000       0.000000       0.000000       0.000000       0.000000       0.000000       0.000000       0.000000       0.000000       0.000000
        23     155.000000      27.876595      80.000000     -50.000000       1.050000     100.000000         1     155.000000      54.300000       0.000000       0.000000       0.000000       0.000000       0.000000       0.000000       0.000000       0.000000       0.000000       0.000000       0.000000
        23     155.000000      27.876595      80.000000     -50.000000       1.050000     100.000000         1     155.000000      54.300000       0.000000       0.000000       0.000000       0.000000       0.000000       0.000000       0.000000       0.000000       0.000000       0.000000       0.000000
        23     350.000000      79.833878     150.000000     -25.000000       1.050000     100.000000         1     350.000000     140.000000       0.000000       0.000000       0.000000       0.000000       0.000000       0.000000       0.000000       0.000000       0.000000       0.000000       0.000000
mpc.gen.end

# branch data: fbus	tbus	r	x	b	rateA	rateB	rateC	ratio	angle	status	angmin	angmax PF* QF* PT* QT*
mpc.branch
         1         2       0.002600       0.013900       0.461100     175.000000     250.000000     200.000000       0.000000       0.000000         1    -360.000000     360.000000      11.939906     -26.920551     -11.936326     -22.454493
         1         3       0.054600       0.211200       0.057200     175.000000     208.000000     220.000000       0.000000       0.000000         1    -360.000000     360.000000      -7.966719      21.565417       8.308248     -26.107605
         1         5       0.021800       0.084500       0.022900     175.000000     208.000000     220.000000       0.000000       0.000000         1    -360.000000     360.000000      60.026813       4.828894     -59.286076      -4.372075
         2         4       0.032800       0.126700       0.034300     175.000000     208.000000     220.000000       0.000000       0.000000         1    -360.000000     360.000000      38.435815      19.150905     -37.848598     -20.427709
         2         6       0.049700       0.192000       0.052000     175.000000     208.000000     220.000000       0.000000       0.000000         1    -360.000000     360.000000      48.500511      -1.038114     -47.407734      -0.190362
         3         9       0.030800       0.119000       0.032200     175.000000     208.000000     220.000000       0.000000       0.000000         1    -360.000000     360.000000      22.898003     -17.009379     -22.658080      14.746075
         3        24       0.002300       0.083900       0.000000     400.000000     510.000000     600.000000       1.030000       0.000000         1    -360.000000     360.000000    -211.206250       6.116984     212.319150      34.479649
         4         9       0.026800       0.103700       0.028100     175.000000     208.000000     220.000000       0.000000       0.000000         1    -360.000000     360.000000     -36.151402       5.427709      36.515644      -6.826294
         5        10       0.022800       0.088300       0.023900     175.000000     208.000000     220.000000       0.000000       0.000000         1    -360.000000     360.000000     -11.713924      -9.627925      11.759545       7.300920
         6        10       0.013900       0.060500       2.459000     175.000000     193.000000     200.000000       0.000000       0.000000         1    -360.000000     360.000000     -88.592266    -130.305169      89.659150    -121.117213
         7         8       0.015900       0.061400       0.016600     175.000000     208.000000     220.000000       0.000000       0.000000         1    -360.000000     360.000000     115.000000      26.839607    -112.882330     -20.351827
         8         9       0.042700       0.165100       0.044700     175.000000     208.000000     220.000000       0.000000       0.000000         1    -360.000000     360.000000     -36.923251       3.357630      37.527423      -5.464895
         8        10       0.042700       0.165100       0.044700     175.000000     208.000000     220.000000       0.000000       0.000000         1    -360.000000     360.000000     -21.194418     -18.005803      21.497299      14.610538
         9        11       0.002300       0.083900       0.000000     400.000000     510.000000     600.000000       1.030000       0.000000         1    -360.000000     360.000000    -105.918640     -12.765204     106.195622      22.869018
         9        12       0.002300       0.083900       0.000000     400.000000     510.000000     600.000000       1.030000       0.000000         1    -360.000000     360.000000    -120.466347     -25.689682     120.835570      39.158318
        10        11       0.002300       0.083900       0.000000     400.000000     510.000000     600.000000       1.020000       0.000000         1    -360.000000     360.000000    -151.176926      36.028654     151.723334     -16.096669
        10        12       0.002300       0.083900       0.000000     400.000000     510.000000     600.000000       1.020000       0.000000         1    -360.000000     360.000000    -166.739067      23.177101     167.380188       0.209868
        11        13       0.006100       0.047600       0.099900     500.000000     600.000000     625.000000       0.000000       0.000000         1    -360.000000     360.000000     -86.145876     -54.965312      86.763925      49.696775
        11        14       0.005400       0.041800       0.087900     500.000000     625.000000     625.000000       0.000000       0.000000         1    -360.000000     360.000000    -171.773080      48.192963     173.550993     -42.958169
        12        13       0.006100       0.047600       0.099900     500.000000     625.000000     625.000000       0.000000       0.000000         1    -360.000000     360.000000     -60.514300     -33.301576      60.785097      25.197553
        12        23       0.012400       0.096600       0.203000     500.000000     625.000000     625.000000       0.000000       0.000000         1    -360.000000     360.000000    -227.701458      -6.066609     234.100275      34.523610
        13        23       0.011100       0.086500       0.181800     500.000000     625.000000     625.000000       0.000000       0.000000         1    -360.000000     360.000000    -225.302607       5.097202     230.740913      17.803429
        14        16       0.005000       0.038900       0.081800     500.000000     625.000000     625.000000       0.000000       0.000000         1    -360.000000     360.000000    -367.550993     -23.765811     374.604683      70.485238
        15        16       0.002200       0.017300       0.036400     500.000000     600.000000     625.000000       0.000000       0.000000         1    -360.000000     360.000000     112.300852     -32.603301    -112.010799      31.130444
        15        21       0.006300       0.049000       0.103000     500.000000     600.000000     625.000000       0.000000       0.000000         1    -360.000000     360.000000    -214.919314     -41.969120     217.831914      53.649587
        15        21       0.006300       0.049000       0.103000     500.000000     600.000000     625.000000       0.000000       0.000000         1    -360.000000     360.000000    -214.919314     -41.969120     217.831914      53.649587
        15        24       0.006700       0.051900       0.109100     500.000000     600.000000     625.000000       0.000000       0.000000         1    -360.000000     360.000000     215.537777      48.587041    -212.319150     -34.479649
        16        17       0.003300       0.025900       0.054500     500.000000     600.000000     625.000000       0.000000       0.000000         1    -360.000000     360.000000    -322.676476     -33.859147     326.029272      54.415917
        16        19       0.003000       0.023100       0.048500     500.000000     600.000000     625.000000       0.000000       0.000000         1    -360.000000     360.000000     115.082593     -43.354236    -114.650052      41.637584
        17        18       0.001800       0.014400       0.030300     500.000000     600.000000     625.000000       0.000000       0.000000         1    -360.000000     360.000000    -186.940933     -58.694482     187.578478      60.490492
        17        22       0.013500       0.105300       0.221200     500.000000     600.000000     625.000000       0.000000       0.000000         1    -360.000000     360.000000    -139.088340       4.278565     141.542574      -9.258399
        18        21       0.003300       0.025900       0.054500     500.000000     600.000000     625.000000       0.000000       0.000000         1    -360.000000     360.000000     -60.289239       5.119080      60.400011     -10.258315
        18        21       0.003300       0.025900       0.054500     500.000000     600.000000     625.000000       0.000000       0.000000         1    -360.000000     360.000000     -60.289239       5.119080      60.400011     -10.258315
        19        20       0.005100       0.039600       0.083300     500.000000     600.000000     625.000000       0.000000       0.000000         1    -360.000000     360.000000     -33.174974     -39.318792      33.288107      31.344533
        19        20       0.005100       0.039600       0.083300     500.000000     600.000000     625.000000       0.000000       0.000000         1    -360.000000     360.000000     -33.174974     -39.318792      33.288107      31.344533
        20        23       0.002800       0.021600       0.045500     500.000000     600.000000     625.000000       0.000000       0.000000         1    -360.000000     360.000000     -97.288107     -44.344533      97.579406      41.630014
        20        23       0.002800       0.021600       0.045500     500.000000     600.000000     625.000000       0.000000       0.000000         1    -360.000000     360.000000     -97.288107     -44.344533      97.579406      41.630014
        21        22       0.008700       0.067800       0.142400     500.000000     600.000000     625.000000       0.000000       0.000000         1    -360.000000     360.000000    -156.463849      20.123403     158.457426     -20.286849
mpc.branch.end

