# Imported from MATPOWER Case Format
mpc.version
2
mpc.version.end

# System MVA base
mpc.baseMVA
100
mpc.baseMVA.end

# Bus data: bus_i	type	Pd	Qd	Gs	Bs	area	Vm	Va	baseKV	zone	Vmax	Vmin
mpc.bus
         1         3       0.000000       0.000000       0.000000       0.000000         1       1.000000       0.000000     345.000000         1       1.100000       0.900000
         2         2       0.000000       0.000000       0.000000       0.000000         1       1.000000       9.668741     345.000000         1       1.100000       0.900000
         3         2       0.000000       0.000000       0.000000       0.000000         1       1.000000       4.771073     345.000000         1       1.100000       0.900000
         4         1       0.000000       0.000000       0.000000       0.000000         1       0.987007      -2.406644     345.000000         1       1.100000       0.900000
         5         1      90.000000      30.000000       0.000000       0.000000         1       0.975472      -4.017264     345.000000         1       1.100000       0.900000
         6         1       0.000000       0.000000       0.000000       0.000000         1       1.003375       1.925602     345.000000         1       1.100000       0.900000
         7         1     100.000000      35.000000       0.000000       0.000000         1       0.985645       0.621545     345.000000         1       1.100000       0.900000
         8         1       0.000000       0.000000       0.000000       0.000000         1       0.996185       3.799120     345.000000         1       1.100000       0.900000
         9         1     125.000000      50.000000       0.000000       0.000000         1       0.957621      -4.349934     345.000000         1       1.100000       0.900000
mpc.bus.end

# generator data: bus	Pg	Qg	Qmax	Qmin	Vg	mBase	status	Pmax	Pmin	Pc1	Pc2	Qc1min	Qc1max	Qc2min	Qc2max	ramp_agc	ramp_10	ramp_30	ramp_q	apf
mpc.gen
         1      71.954702      24.068958     300.000000    -300.000000       1.000000     100.000000         1     250.000000      10.000000       0.000000       0.000000       0.000000       0.000000       0.000000       0.000000       0.000000       0.000000       0.000000       0.000000       0.000000
         2     163.000000      14.460120     300.000000    -300.000000       1.000000     100.000000         1     300.000000      10.000000       0.000000       0.000000       0.000000       0.000000       0.000000       0.000000       0.000000       0.000000       0.000000       0.000000       0.000000
         3      85.000000      -3.649026     300.000000    -300.000000       1.000000     100.000000         1     270.000000      10.000000       0.000000       0.000000       0.000000       0.000000       0.000000       0.000000       0.000000       0.000000       0.000000       0.000000       0.000000
mpc.gen.end

# branch data: fbus	tbus	r	x	b	rateA	rateB	rateC	ratio	angle	status	angmin	angmax PF* QF* PT* QT*
mpc.branch
         1         4       0.000000       0.057600       0.000000     250.000000     250.000000     250.000000       0.000000       0.000000         1    -360.000000     360.000000      71.954702      24.068958     -71.954702     -20.753045
         4         5       0.017000       0.092000       0.158000     250.000000     250.000000     250.000000       0.000000       0.000000         1    -360.000000     360.000000      30.728280      -0.585851     -30.554686     -13.687950
         5         6       0.039000       0.170000       0.358000     150.000000     150.000000     150.000000       0.000000       0.000000         1    -360.000000     360.000000     -59.445314     -16.312050      60.893866     -12.427470
         3         6       0.000000       0.058600       0.000000     300.000000     300.000000     300.000000       0.000000       0.000000         1    -360.000000     360.000000      85.000000      -3.649026     -85.000000       7.890678
         6         7       0.011900       0.100800       0.209000     150.000000     150.000000     150.000000       0.000000       0.000000         1    -360.000000     360.000000      24.106134       4.536791     -24.010648     -24.400762
         7         8       0.008500       0.072000       0.149000     250.000000     250.000000     250.000000       0.000000       0.000000         1    -360.000000     360.000000     -75.989352     -10.599238      76.495564       0.256239
         8         2       0.000000       0.062500       0.000000     250.000000     250.000000     250.000000       0.000000       0.000000         1    -360.000000     360.000000    -163.000000       2.276190     163.000000      14.460120
         8         9       0.032000       0.161000       0.306000     250.000000     250.000000     250.000000       0.000000       0.000000         1    -360.000000     360.000000      86.504436      -2.532429     -84.039887     -14.281983
         9         4       0.010000       0.085000       0.176000     250.000000     250.000000     250.000000       0.000000       0.000000         1    -360.000000     360.000000     -40.960113     -35.718017      41.226421      21.338895
mpc.branch.end

