# Imported from MATPOWER Case Format
mpc.version
2
mpc.version.end

# System MVA base
mpc.baseMVA
100
mpc.baseMVA.end

# Bus data: bus_i	type	Pd	Qd	Gs	Bs	area	Vm	Va	baseKV	zone	Vmax	Vmin
mpc.bus
         1         1      90.000000      49.000000       0.000000       0.000000         1       1.028420       5.967366     115.000000         1       1.060000       0.940000
         2         1      56.000000      15.000000       0.000000       0.000000         1       1.035340       7.754974     115.000000         1       1.060000       0.940000
         3         1      20.000000       0.000000       0.000000       0.000000         1       0.997099       6.657081     230.000000         1       1.060000       0.940000
         4         1       0.000000       0.000000       0.000000       0.000000         1       1.030812       4.728270     345.000000         1       1.060000       0.940000
         5         1     353.000000     130.000000       0.000000       0.000000         1       1.019109       4.701402     115.000000         1       1.060000       0.940000
         6         1     120.000000      41.000000       0.000000       0.000000         1       1.031196       7.006062     115.000000         1       1.060000       0.940000
         7         1       0.000000       0.000000       0.000000       0.000000         1       0.993408       6.205646     230.000000         1       1.060000       0.940000
         8         2      63.000000      14.000000       0.000000       0.000000         1       1.015300       2.415275     115.000000         1       1.060000       0.940000
         9         1      96.000000      43.000000       0.000000       0.000000         1       1.003386       2.870858     115.000000         1       1.060000       0.940000
        10         2     153.000000      33.000000       0.000000       0.000000         1       1.020500       1.363181     230.000000         1       1.060000       0.940000
        11         1      83.000000      21.000000       0.000000       0.000000         1       1.005657       2.481244     115.000000         1       1.060000       0.940000
        12         1       0.000000       0.000000       0.000000       0.000000         1       0.997373       5.230267     230.000000         1       1.060000       0.940000
        13         1      58.000000      10.000000       0.000000       0.000000         1       0.997674      -0.537104     115.000000         1       1.060000       0.940000
        14         1     160.000000      60.000000       0.000000       0.000000         1       0.999170      -4.795838     115.000000         1       1.060000       0.940000
        15         1     126.700000      23.000000       0.000000       0.000000         1       1.034391      -8.566993     115.000000         1       1.060000       0.940000
        16         1       0.000000       0.000000       0.000000       0.000000         1       1.031587      -2.622319     345.000000         1       1.060000       0.940000
        17         1     561.000000     220.000000       0.000000       0.000000         1       1.064906     -13.084750     115.000000         1       1.060000       0.940000
        19         1       0.000000       0.000000       0.000000       0.000000         1       0.981924       1.088704     230.000000         1       1.060000       0.940000
        20         2     605.000000     120.000000       0.000000       0.000000         1       1.001000      -2.446935     115.000000         1       1.060000       0.940000
        21         1      77.000000       1.000000       0.000000       0.000000         1       0.975168       1.633975     230.000000         1       1.060000       0.940000
        22         1      81.000000      23.000000       0.000000       0.000000         1       0.996270      -1.959943     115.000000         1       1.060000       0.940000
        23         1      21.000000       7.000000       0.000000       0.000000         1       1.050098       3.951453     115.000000         1       1.060000       0.940000
        24         1       0.000000       0.000000       0.000000       0.000000         1       1.005656       6.033026     230.000000         1       1.060000       0.940000
        25         1      45.000000      12.000000       0.000000       0.000000         1       1.023354       1.452764     115.000000         1       1.060000       0.940000
        26         1      28.000000       9.000000       0.000000       0.000000         1       0.998577      -1.721040     115.000000         1       1.060000       0.940000
        27         1      69.000000      13.000000       0.000000       0.000000         1       0.975035      -4.882566     115.000000         1       1.060000       0.940000
        33         1      55.000000       6.000000       0.000000       0.000000         1       1.024565     -12.001874     115.000000         1       1.060000       0.940000
        34         1       0.000000       0.000000       0.000000       0.000000         1       1.041441      -7.900901     345.000000         1       1.060000       0.940000
        35         1       0.000000       0.000000       0.000000       0.000000         1       0.975688     -25.681733     115.000000         1       1.060000       0.940000
        36         1       0.000000       0.000000       0.000000       0.000000         1       1.001170     -22.518812     230.000000         1       1.060000       0.940000
        37         1      85.000000      32.000000       0.000000       0.000000         1       1.020158     -11.214460     115.000000         1       1.060000       0.940000
        38         1     155.000000      18.000000       0.000000       0.000000         1       1.020312     -12.538577     115.000000         1       1.060000       0.940000
        39         1       0.000000       0.000000       0.000000       0.000000         1       1.053611      -5.773048     345.000000         1       1.060000       0.940000
        40         1      46.000000     -21.000000       0.000000       0.000000         1       1.021655     -12.760874     115.000000         1       1.060000       0.940000
        41         1      86.000000       0.000000       0.000000       0.000000         1       1.029283     -10.425402     115.000000         1       1.060000       0.940000
        42         1       0.000000       0.000000       0.000000       0.000000         1       1.044944      -7.406500     345.000000         1       1.060000       0.940000
        43         1      39.000000       9.000000       0.000000       0.000000         1       1.000732     -16.763360     115.000000         1       1.060000       0.940000
        44         1     195.000000      29.000000       0.000000       0.000000         1       1.008735     -17.431011     115.000000         1       1.060000       0.940000
        45         1       0.000000       0.000000       0.000000       0.000000         1       1.021646     -14.690343     230.000000         1       1.060000       0.940000
        46         1       0.000000       0.000000       0.000000       0.000000         1       1.034515     -11.697007     345.000000         1       1.060000       0.940000
        47         1      58.000000      11.800000       0.000000       0.000000         1       0.977877     -23.163003     115.000000         1       1.060000       0.940000
        48         1      41.000000      19.000000       0.000000       0.000000         1       1.001958     -16.120719     115.000000         1       1.060000       0.940000
        49         1      92.000000      26.000000       0.000000       0.000000         1       1.047499      -2.944536     115.000000         1       1.060000       0.940000
        51         1      -5.000000       5.000000       0.000000       0.000000         1       1.025388      -8.134651     115.000000         1       1.060000       0.940000
        52         1      61.000000      28.000000       0.000000       0.000000         1       0.998003     -11.839500     115.000000         1       1.060000       0.940000
        53         1      69.000000       3.000000       0.000000       0.000000         1       0.996035     -17.578761     115.000000         1       1.060000       0.940000
        54         1      10.000000       1.000000       0.000000       0.000000         1       1.005135     -16.222345     115.000000         1       1.060000       0.940000
        55         1      22.000000      10.000000       0.000000       0.000000         1       1.015146     -12.187459     115.000000         1       1.060000       0.940000
        57         1      98.000000      20.000000       0.000000       0.000000         1       1.033490      -7.965905     115.000000         1       1.060000       0.940000
        58         1      14.000000       1.000000       0.000000       0.000000         1       0.991822      -5.958885     115.000000         1       1.060000       0.940000
        59         1     218.000000     106.000000       0.000000       0.000000         1       0.978860      -5.252448     115.000000         1       1.060000       0.940000
        60         1       0.000000       0.000000       0.000000       0.000000         1       1.024716      -9.514800     230.000000         1       1.060000       0.940000
        61         1     227.000000     110.000000       0.000000       0.000000         1       0.990654      -3.433183     115.000000         1       1.060000       0.940000
        62         1       0.000000       0.000000       0.000000       0.000000         1       1.016040      -1.061556     230.000000         1       1.060000       0.940000
        63         2      70.000000      30.000000       0.000000       0.000000         1       0.958300     -17.588618     115.000000         1       1.060000       0.940000
        64         1       0.000000       0.000000       0.000000       0.000000         1       0.947956     -12.935512     230.000000         1       1.060000       0.940000
        69         1       0.000000       0.000000       0.000000       0.000000         1       0.962698     -26.471665     115.000000         1       1.060000       0.940000
        70         1      56.000000      20.000000       0.000000       0.000000         1       0.951318     -35.123758     115.000000         1       1.060000       0.940000
        71         1     116.000000      38.000000       0.000000       0.000000         1       0.979391     -29.844566     115.000000         1       1.060000       0.940000
        72         1      57.000000      19.000000       0.000000       0.000000         1       0.969614     -27.441242     115.000000         1       1.060000       0.940000
        73         1     224.000000      71.000000       0.000000       0.000000         1       0.977610     -25.737286     115.000000         1       1.060000       0.940000
        74         1       0.000000       0.000000       0.000000       0.000000         1       0.996488     -21.943015     230.000000         1       1.060000       0.940000
        76         2     208.000000     107.000000       0.000000       0.000000         1       0.963200     -26.502973     115.000000         1       1.060000       0.940000
        77         1      74.000000      28.000000       0.000000       0.000000         1       0.983787     -24.911008     115.000000         1       1.060000       0.940000
        78         1       0.000000       0.000000       0.000000       0.000000         1       0.990023     -24.034603     115.000000         1       1.060000       0.940000
        79         1      48.000000      14.000000       0.000000       0.000000         1       0.982012     -25.011278     115.000000         1       1.060000       0.940000
        80         1      28.000000       7.000000       0.000000       0.000000         1       0.987242     -24.817184     115.000000         1       1.060000       0.940000
        81         1       0.000000       0.000000       0.000000       0.000000         1       1.034127     -18.756694     345.000000         1       1.060000       0.940000
        84         2      37.000000      13.000000       0.000000       0.000000         1       1.025000     -17.147782     115.000000         1       1.060000       0.940000
        85         1       0.000000       0.000000       0.000000       0.000000         1       0.987112     -17.765062     230.000000         1       1.060000       0.940000
        86         1       0.000000       0.000000       0.000000       0.000000         1       0.990818     -14.247940     230.000000         1       1.060000       0.940000
        87         1       0.000000       0.000000       0.000000       0.000000         1       0.991954      -7.792729     230.000000         1       1.060000       0.940000
        88         1       0.000000       0.000000       0.000000       0.000000         1       1.015248     -20.866805     230.000000         1       1.060000       0.940000
        89         1      44.200000       0.000000       0.000000       0.000000         1       1.031724     -11.142914     115.000000         1       1.060000       0.940000
        90         1      66.000000       0.000000       0.000000       0.000000         1       1.027231     -11.234891     115.000000         1       1.060000       0.940000
        91         2      17.400000       0.000000       0.000000       0.000000         1       1.052000      -9.436986     115.000000         1       1.060000       0.940000
        92         2      15.800000       0.000000       0.000000       0.000000         1       1.052000      -6.243897     115.000000         1       1.060000       0.940000
        94         1      60.300000       0.000000       0.000000       0.000000         1       0.992945      -9.449316     115.000000         1       1.060000       0.940000
        97         1      39.900000       0.000000       0.000000       0.000000         1       1.018224     -13.287084     115.000000         1       1.060000       0.940000
        98         2      66.700000       0.000000       0.000000       0.000000         1       1.000000     -14.664862     115.000000         1       1.060000       0.940000
        99         1      83.500000       0.000000       0.000000       0.000000         1       0.989358     -20.375257     115.000000         1       1.060000       0.940000
       100         1       0.000000       0.000000       0.000000       0.000000         1       1.005986     -14.503328     115.000000         1       1.060000       0.940000
       102         1      77.800000       0.000000       0.000000       0.000000         1       1.000708     -15.292575     115.000000         1       1.060000       0.940000
       103         1      32.000000       0.000000       0.000000       0.000000         1       1.028759     -12.118075     115.000000         1       1.060000       0.940000
       104         1       8.600000       0.000000       0.000000       0.000000         1       0.995737     -17.401629     115.000000         1       1.060000       0.940000
       105         1      49.600000       0.000000       0.000000       0.000000         1       1.022267     -13.001711     115.000000         1       1.060000       0.940000
       107         1       4.600000       0.000000       0.000000       0.000000         1       1.009461     -16.081783     115.000000         1       1.060000       0.940000
       108         2     112.100000       0.000000       0.000000       0.000000         1       0.990000     -20.363463     115.000000         1       1.060000       0.940000
       109         1      30.700000       0.000000       0.000000       0.000000         1       0.975245     -26.291620     115.000000         1       1.060000       0.940000
       110         1      63.000000       0.000000       0.000000       0.000000         1       0.973213     -24.931581     115.000000         1       1.060000       0.940000
       112         1      19.600000       0.000000       0.000000       0.000000         1       0.974473     -29.273912     115.000000         1       1.060000       0.940000
       113         1      26.200000       0.000000       0.000000       0.000000         1       0.970155     -25.447111     115.000000         1       1.060000       0.940000
       114         1      18.200000       0.000000       0.000000       0.000000         1       0.976812     -29.209198     115.000000         1       1.060000       0.940000
       115         1       0.000000       0.000000       0.000000       0.000000         1       0.960282     -13.548487     115.000000         2       1.060000       0.940000
       116         1       0.000000       0.000000       0.000000       0.000000         1       1.024861     -12.666916     115.000000         2       1.060000       0.940000
       117         1       0.000000       0.000000       0.000000     325.000000         1       0.934829      -4.699184     115.000000         2       1.060000       0.940000
       118         1      14.100000     650.000000       0.000000       0.000000         1       0.929853      -4.101573     115.000000         2       1.060000       0.940000
       119         2       0.000000       0.000000       0.000000       0.000000         1       1.043500       5.187338     115.000000         2       1.060000       0.940000
       120         1     777.000000     215.000000       0.000000      55.000000         1       0.958437      -8.749210     115.000000         2       1.060000       0.940000
       121         1     535.000000      55.000000       0.000000       0.000000         1       0.987111     -12.614836     115.000000         2       1.060000       0.940000
       122         1     229.100000      11.800000       0.000000       0.000000         1       0.972796     -14.343069     115.000000         2       1.060000       0.940000
       123         1      78.000000       1.400000       0.000000       0.000000         1       1.000588     -17.613437     115.000000         2       1.060000       0.940000
       124         2     276.400000      59.300000       0.000000       0.000000         1       1.023300     -13.464460     115.000000         2       1.060000       0.940000
       125         2     514.800000      82.700000       0.000000       0.000000         1       1.010300     -18.406507     115.000000         2       1.060000       0.940000
       126         1      57.900000       5.100000       0.000000       0.000000         1       0.997795     -12.842680     115.000000         2       1.060000       0.940000
       127         1     380.800000      37.000000       0.000000       0.000000         1       1.000129     -10.501804     230.000000         2       1.060000       0.940000
       128         1       0.000000       0.000000       0.000000       0.000000         1       1.002406      -4.755894     230.000000         2       1.060000       0.940000
       129         1       0.000000       0.000000       0.000000       0.000000         1       1.002825      -4.377138     230.000000         2       1.060000       0.940000
       130         1       0.000000       0.000000       0.000000       0.000000         1       1.019136       5.577825     230.000000         2       1.060000       0.940000
       131         1       0.000000       0.000000       0.000000       0.000000         1       0.986142       6.073651     230.000000         2       1.060000       0.940000
       132         1       0.000000       0.000000       0.000000       0.000000         1       1.004551       3.063816     230.000000         2       1.060000       0.940000
       133         1       0.000000       0.000000       0.000000       0.000000         1       1.001998      -5.438992     230.000000         2       1.060000       0.940000
       134         1       0.000000       0.000000       0.000000       0.000000         1       1.022076      -8.022236     230.000000         2       1.060000       0.940000
       135         1     169.200000      41.600000       0.000000       0.000000         1       1.019337      -6.733949     230.000000         2       1.060000       0.940000
       136         1      55.200000      18.200000       0.000000       0.000000         1       1.047586       1.563010     230.000000         2       1.060000       0.940000
       137         1     273.600000      99.800000       0.000000       0.000000         1       1.047088      -1.431507     230.000000         2       1.060000       0.940000
       138         2    1019.200000     135.200000       0.000000       0.000000         1       1.055000      -6.330769     230.000000         2       1.060000       0.940000
       139         1     595.000000      83.300000       0.000000       0.000000         1       1.011709      -3.544734     115.000000         2       1.060000       0.940000
       140         1     387.700000     114.700000       0.000000       0.000000         1       1.042991      -3.412077     230.000000         2       1.060000       0.940000
       141         2     145.000000      58.000000       0.000000       0.000000         1       1.051000       0.073647     230.000000         2       1.060000       0.940000
       142         1      56.500000      24.500000       0.000000       0.000000         1       1.015510      -2.741853     230.000000         2       1.060000       0.940000
       143         2      89.500000      35.500000       0.000000       0.000000         1       1.043500       4.061836     230.000000         2       1.060000       0.940000
       144         1       0.000000       0.000000       0.000000       0.000000         1       1.016107      -0.660899     230.000000         2       1.060000       0.940000
       145         1      24.000000      14.000000       0.000000       0.000000         1       1.008106      -0.129942     230.000000         2       1.060000       0.940000
       146         2       0.000000       0.000000       0.000000       0.000000         1       1.052800       4.346952     230.000000         2       1.060000       0.940000
       147         2       0.000000       0.000000       0.000000       0.000000         1       1.052800       8.389007     230.000000         2       1.060000       0.940000
       148         1      63.000000      25.000000       0.000000       0.000000         1       1.057719       0.306249     230.000000         2       1.060000       0.940000
       149         2       0.000000       0.000000       0.000000       0.000000         1       1.073500       5.257430     230.000000         2       1.060000       0.940000
       150         1       0.000000       0.000000       0.000000       0.000000         1       0.986926       6.355204     230.000000         2       1.060000       0.940000
       151         1       0.000000       0.000000       0.000000       0.000000         1       1.004833       4.150361     230.000000         2       1.060000       0.940000
       152         2      17.000000       9.000000       0.000000       0.000000         1       1.053500       9.263932     230.000000         2       1.060000       0.940000
       153         2       0.000000       0.000000       0.000000       0.000000         1       1.043500      10.483648     230.000000         2       1.060000       0.940000
       154         1      70.000000       5.000000       0.000000      34.500000         1       0.966417      -1.775727     115.000000         2       1.060000       0.940000
       155         1     200.000000      50.000000       0.000000       0.000000         1       1.017724       6.774358     230.000000         2       1.060000       0.940000
       156         2      75.000000      50.000000       0.000000       0.000000         1       0.963000       5.168796     115.000000         2       1.060000       0.940000
       157         1     123.500000     -24.300000       0.000000       0.000000         1       0.984473     -11.905024     230.000000         2       1.060000       0.940000
       158         1       0.000000       0.000000       0.000000       0.000000         1       0.998709     -11.380706     230.000000         2       1.060000       0.940000
       159         1      33.000000      16.500000       0.000000       0.000000         1       0.986644      -9.798314     230.000000         2       1.060000       0.940000
       160         1       0.000000       0.000000       0.000000       0.000000         1       0.999801     -12.530175     230.000000         2       1.060000       0.940000
       161         1      35.000000      15.000000       0.000000       0.000000         1       1.036082       8.867044     230.000000         2       1.060000       0.940000
       162         1      85.000000      24.000000       0.000000       0.000000         1       0.991820      18.523901     230.000000         2       1.060000       0.940000
       163         1       0.000000       0.400000       0.000000       0.000000         1       1.041011       2.929253     230.000000         2       1.060000       0.940000
       164         1       0.000000       0.000000       0.000000    -212.000000         1       0.983914       9.684462     230.000000         2       1.060000       0.940000
       165         1       0.000000       0.000000       0.000000       0.000000         1       1.000211      26.331973     230.000000         2       1.060000       0.940000
       166         1       0.000000       0.000000       0.000000    -103.000000         1       0.997254      30.243733     230.000000         2       1.060000       0.940000
       167         1     299.900000      95.700000       0.000000       0.000000         1       0.971492      -6.885258     230.000000         2       1.060000       0.940000
       168         1       0.000000       0.000000       0.000000       0.000000         1       1.002431      -4.778923     230.000000         2       1.060000       0.940000
       169         1       0.000000       0.000000       0.000000       0.000000         1       0.987864      -6.656519     230.000000         2       1.060000       0.940000
       170         2     481.800000     205.000000       0.000000       0.000000         1       0.929000       0.107697     115.000000         2       1.060000       0.940000
       171         2     763.600000     291.100000       0.000000       0.000000         1       0.982900      -9.913900     115.000000         2       1.060000       0.940000
       172         1      26.500000       0.000000       0.000000       0.000000         1       1.024466      -6.199582     115.000000         2       1.060000       0.940000
       173         1     163.500000      43.000000       0.000000      53.000000         1       0.983654     -12.728783     115.000000         2       1.060000       0.940000
       174         1       0.000000       0.000000       0.000000       0.000000         1       1.062214      -2.666675     115.000000         2       1.060000       0.940000
       175         1     176.000000      83.000000       0.000000       0.000000         1       0.973081      -7.180314     115.000000         2       1.060000       0.940000
       176         2       5.000000       4.000000       0.000000       0.000000         1       1.052200       4.691246     115.000000         2       1.060000       0.940000
       177         2      28.000000      12.000000       0.000000       0.000000         1       1.007700       0.645671     115.000000         2       1.060000       0.940000
       178         1     427.400000     173.600000       0.000000       0.000000         1       0.939796      -6.536834     115.000000         2       1.060000       0.940000
       179         1      74.000000      29.000000       0.000000      45.000000         1       0.969910      -9.337601     115.000000         2       1.060000       0.940000
       180         1      69.500000      49.300000       0.000000       0.000000         1       0.979330      -3.065068     115.000000         2       1.060000       0.940000
       181         1      73.400000       0.000000       0.000000       0.000000         1       1.051824      -1.303233     230.000000         2       1.060000       0.940000
       182         1     240.700000      89.000000       0.000000       0.000000         1       1.044628      -4.165126     230.000000         2       1.060000       0.940000
       183         1      40.000000       4.000000       0.000000       0.000000         1       0.971645       7.145060     115.000000         2       1.060000       0.940000
       184         1     136.800000      16.600000       0.000000       0.000000         1       1.038589      -6.824498     230.000000         2       1.060000       0.940000
       185         2       0.000000       0.000000       0.000000       0.000000         1       1.052200      -4.310114     230.000000         2       1.060000       0.940000
       186         2      59.800000      24.300000       0.000000       0.000000         1       1.065000       2.194332     230.000000         2       1.060000       0.940000
       187         2      59.800000      24.300000       0.000000       0.000000         1       1.065000       1.418988     230.000000         2       1.060000       0.940000
       188         1     182.600000      43.600000       0.000000       0.000000         1       1.053282      -0.701185     230.000000         2       1.060000       0.940000
       189         1       7.000000       2.000000       0.000000       0.000000         1       1.002757     -26.013343      66.000000         3       1.060000       0.940000
       190         2       0.000000       0.000000       0.000000    -150.000000         1       1.055100     -20.416635     345.000000         3       1.060000       0.940000